/*--------------------------------*- C++ -*----------------------------------*\
  =========                 |
  \\      /  F ield         | OpenFOAM: The Open Source CFD Toolbox
   \\    /   O peration     | Website:  https://openfoam.org
    \\  /    A nd           | Version:  7
     \\/     M anipulation  |
\*---------------------------------------------------------------------------*/
FoamFile
{
    version     2.0;
    format      ascii;
    class       featureEdgeMesh;
    location    "constant/triSurface";
    object      DelftCampus_LoD2_EWI_xyz0_rotate.eMesh;
}
// * * * * * * * * * * * * * * * * * * * * * * * * * * * * * * * * * * * * * //


// points:

20328
(
(402.51999 587.91498 14.079)
(402.51999 587.91498 1.95)
(391.21201 592.47198 9.3170004)
(391.21201 592.47198 1.9499999)
(390.367 590.03699 9.3170004)
(390.367 590.03699 1.9499999)
(381.495 587.88202 5.3350101)
(379.60501 594.52197 1.95)
(380.202 596.92999 12.372)
(380.202 596.92999 1.9500003)
(377.35199 598.10199 12.381)
(365.99899 602.79199 12.353)
(363.05499 604.17798 12.38)
(363.18201 604.12903 12.379)
(363.18201 604.12903 1.9499986)
(337.599 614.65198 12.327)
(334.70999 615.828 12.32)
(332.815 582.99799 16.361)
(332.39001 581.60101 16.356001)
(335.37299 580.42902 16.356001)
(335.33401 580.34698 16.355)
(382.953 590.57703 1.9500003)
(384.892 589.73297 1.9499999)
(366.06 602.94098 7.0740099)
(366.06 602.94098 1.95)
(365.99896 602.79199 1.95)
(377.418 598.21198 7.0480099)
(377.418 598.21204 1.9500002)
(377.263 598.146 12.381)
(380.539 596.78101 12.371)
(380.539 596.78101 1.9500002)
(329.35101 594.82599 7.33002)
(311.414 601.284 14.079)
(308.13199 593.40601 14.079)
(308.13199 593.40601 1.95)
(351.82901 608.81897 7.0620198)
(351.82904 608.81897 1.9500002)
(320.02701 622.04901 2.3110299)
(320.02701 622.04901 1.95)
(334.76599 615.92798 6.9920201)
(334.76599 615.92798 1.9499999)
(334.64899 615.85699 12.32)
(337.64301 614.74103 7.04702)
(337.64301 614.74103 1.9499987)
(336.638 612.453 12.362)
(405.55301 610.74701 43.289001)
(379.60501 594.52197 12.324)
(414.215 615.74103 6.7280002)
(414.21497 615.74103 1.95)
(394.013 558.19397 14.079)
(398.69199 609.76398 41.236)
(398.10101 608.33197 41.244999)
(357.75699 583.05798 7.3610101)
(354.89499 584.39502 7.3170099)
(326.46201 596.22302 7.3320198)
(333.66 613.45398 12.358)
(323.37399 620.66901 7.0210299)
(308.19299 593.20099 14.079)
(308.19299 593.20099 1.95)
(397.146 565.789 14.079)
(397.146 565.789 1.9499999)
(394.798 569.14301 14.079)
(402.71399 587.71002 14.079)
(396.48801 596.95203 41.998001)
(399.76901 595.505 43.139)
(376.341 595.89697 12.334)
(368.83301 577.91602 14.079)
(371.86099 576.30298 14.079)
(372.19199 577.12 7.3000002)
(393.68701 557.69202 14.079)
(313.79501 593.72198 16.745001)
(318.26501 591.60498 16.768)
(319.827 595.422 16.767)
(315.22501 597.27301 16.743999)
(332.39001 581.60107 1.95)
(335.33942 580.35834 1.9500004)
(337.37299 585.30103 16.372999)
(369.17599 578.70001 7.3870101)
(341.66 585.125 15.971)
(338.737 586.35699 15.968)
(402.89001 594.11902 42.028)
(404.59698 598.03497 42.002998)
(404.14999 595.99701 41.882)
(394.41599 591.25702 14.079)
(395.35501 594.62701 39.205002)
(408.056 615.54797 43.134998)
(405.04501 616.823 42.101002)
(408.79501 615.22699 42.874001)
(397.448 601.36102 41.416)
(398.07901 601.06299 41.966)
(377.241 589.63898 6.9490099)
(374.35199 580.164 14.079)
(373.03201 577.03198 14.079)
(380.70499 577.67798 14.079)
(362.07199 601.82501 12.394)
(364.944 600.45502 12.369)
(397.504 593.59399 39.202)
(340.98001 583.34003 15.978)
(404.095 591.08002 39.189999)
(323.44601 590.73297 16.375999)
(323.91 592.83099 16.382999)
(362.061 600.797 7.0710101)
(323.24701 591.37299 16.378)
(324.479 589.64398 18.296)
(324.97101 589.20801 18.296)
(333.53299 585.30701 16.771)
(366.18701 602.71399 12.352)
(382.953 590.57703 5.2730098)
(384.892 589.73297 5.3080001)
(399.57599 607.64203 40.574001)
(390.68201 583.45599 9.3170004)
(414.138 615.57501 39.172001)
(336.284 612.49701 12.363)
(337.66501 614.63098 12.327)
(348.979 610.034 7.05902)
(348.979 610.034 1.95)
(338.20099 584.62799 15.974)
(325.57199 592.10797 18.313999)
(330.13 590.47803 18.323999)
(396.05701 597.84802 41.390999)
(380.42801 573.64502 14.079)
(410.87299 614.43201 42.146)
(410.26001 610.81201 41.882999)
(316.375 611.59198 3.4140301)
(320.34601 594.13 16.243)
(315.57401 611.32098 3.41503)
(333.577 587.56097 16.879999)
(399.79099 607.94598 40.542)
(399.57001 609.315 40.831001)
(361.923 600.39398 7.0710101)
(330.19101 589.96503 15.724)
(330.98599 588.15198 16.933001)
(331.32901 588.539 14.772)
(319.74399 592.24597 16.247)
(397.39401 593.61603 39.202)
(396.81299 593.69897 39.202999)
(329.46201 588.35101 18.309999)
(333.953 586.70001 16.834999)
(394.957 569.08301 2.1689999)
(394.957 569.08301 1.9499999)
(402.896 591.03003 39.192001)
(397.63699 593.23999 39.201)
(414.23199 615.53601 18.868999)
(414.17099 615.56299 18.874001)
(413.535 616.034 39.173)
(403.112 620.37 39.191002)
(402.67001 620.28198 39.192001)
(392.582 595.875 39.209999)
(223.33 267.70099 4.8617301)
(227.429 266.01001 4.8457298)
(223.33 267.70099 1.9499999)
(222.12 264.811 4.8937302)
(222.12 264.811 1.9500003)
(226.241 263.099 4.8777299)
(226.241 263.099 1.95)
(227.429 266.01001 1.95)
(-291.43301 461.98901 13.5797)
(-291.43301 461.98901 1.9499997)
(-284.936 477.987 13.5797)
(-284.936 477.987 1.95)
(-283.461 481.58301 13.5797)
(-283.461 481.58301 1.95)
(-348.71899 475.89899 13.5797)
(-348.71899 475.89899 1.9499996)
(-380.70499 510.95599 13.5797)
(-380.70499 510.95599 1.95)
(-335.64899 384.716 13.5797)
(-335.64899 384.716 1.9500002)
(-324.97699 380.27499 13.5797)
(-324.97699 380.27499 1.9499999)
(-316.54599 381.854 13.5797)
(-316.54599 381.854 1.9500002)
(-316.12601 381.78799 13.5797)
(-316.12601 381.78799 1.9499991)
(-310.73999 395.88 13.5797)
(-310.73999 395.88 1.9500002)
(-398.39401 453.13901 15.6537)
(-398.19 453.565 15.6137)
(-285.19699 477.64001 13.5797)
(-285.19699 477.64001 1.9500003)
(-392.15201 515.68597 20.675699)
(-386.241 513.24402 20.675699)
(-377.36301 475.76099 14.7227)
(-377.56201 475.961 14.7087)
(-376.811 475.651 15.5007)
(-374.67801 474.51199 15.5427)
(-397.72601 451.02399 15.7837)
(-378.297 421.97101 21.2257)
(-371.26999 419.18799 24.1567)
(-375.61099 420.89899 24.1287)
(-299.53799 457.06699 16.0327)
(-379.25201 510.24301 20.675699)
(-294.00201 455.75299 13.5797)
(-294.00201 455.75299 1.9500009)
(-377.164 477.021 14.7207)
(-374.20901 475.91 15.5367)
(-376.396 476.728 15.4957)
(-419.56201 441.82501 21.610701)
(-418.67999 441.561 21.609699)
(-309.298 444.565 15.7937)
(-312.85101 446.09601 15.8147)
(-418.06 438.73199 24.1427)
(-413.71799 429.285 24.1457)
(-388.69901 507.38199 24.1357)
(-303.80301 450.90201 16.043699)
(-302.35001 450.27802 16.043699)
(-313.35901 443.953 15.8187)
(-321.56201 493.68701 13.5797)
(-321.56201 493.68701 1.950001)
(-321.67899 493.66 13.5797)
(-411.117 435.866 24.155701)
(-379.595 418.77301 21.269699)
(-338.009 406.974 20.675699)
(-306.91199 438.07001 15.2907)
(-305.172 439.81 15.1997)
(-332.37299 451.98499 15.2317)
(-331.689 453.466 15.2117)
(-411.37601 440.422 21.9657)
(-412.18301 440.76501 21.9657)
(-399.20001 450.34399 15.5997)
(-339.39401 472.673 13.5797)
(-339.39401 472.67297 1.9499999)
(-348.056 476.164 13.5797)
(-348.056 476.164 1.9499996)
(-348.20001 476.10901 13.5797)
(-300.681 454.332 15.9817)
(-300.94101 454.51501 15.9807)
(-302.04599 454.957 15.9817)
(-396.52701 456.24399 15.7367)
(-394.54401 455.267 15.7137)
(-394.57101 456.20999 15.6777)
(-339.362 407.96201 20.675699)
(-413.19901 438.026 21.9387)
(-412.72299 437.70401 21.9377)
(-355.14999 478.57401 13.5797)
(-355.14996 478.57401 1.9500014)
(-355.194 478.83801 13.5797)
(-355.194 478.83801 1.9500014)
(-355.30499 479.30301 13.5797)
(-355.30499 479.30301 1.9500022)
(-381.76001 425.711 20.675699)
(-330.83701 451.311 15.2537)
(-330.241 452.43799 15.2397)
(-310.14999 442.61099 15.8007)
(-329.12 451.21701 14.4807)
(-328.08701 451.85199 14.4867)
(-327.28 449.918 14.5707)
(-326.733 451.08401 14.5467)
(-305.564 442.90799 16.0457)
(-296.802 463.646 16.0497)
(-295.07401 467.76199 15.9807)
(-301.117 457.43201 16.0357)
(-299.01199 461.61301 15.9637)
(-373.767 412.802 24.1437)
(-378.32901 414.646 24.113701)
(-298.013 463.94 16.0527)
(-296.621 468.29199 15.9827)
(-395.90201 456.647 15.7017)
(-396.48901 456.327 15.7327)
(-306.48099 440.53201 15.3097)
(-399.34399 449.80301 15.6897)
(-306.69699 444.87 16.0287)
(-305.38199 447.06799 15.9977)
(-396.45401 451.32101 15.7127)
(-398.09 453.62 15.6057)
(-370.784 410.039 21.852699)
(-370.08701 409.586 21.852699)
(-367.215 416.87799 21.8417)
(-367.89999 417.16501 21.8407)
(-297.84201 461.10599 15.9647)
(-423.46301 432.31299 21.825701)
(-397.70401 448.92499 15.7887)
(-397.173 449.32199 15.7107)
(-428.32999 428.32999 20.675699)
(-396.526 451.25 15.7207)
(-322.98199 384.43399 13.5797)
(-310.40302 395.599 13.5797)
(-300.94601 438.60001 13.5797)
(-294.21201 486.08099 13.5797)
(-334.29001 470.57401 13.5797)
(-378.04901 513.65802 13.5797)
(-365.465 508.43201 13.5797)
(-317.07599 398.55899 13.5797)
(-317.07599 398.55899 1.95)
(-295.02301 429.009 13.5797)
(-293.74701 432.05301 13.5797)
(-300.94601 438.60001 1.95)
(-294.366 486.05801 13.5797)
(-294.366 486.05804 1.9499998)
(-348.20001 476.10901 1.9500002)
(-322.98199 384.43396 1.9499999)
(-310.40302 395.599 1.9500002)
(-372.806 490.74899 13.5797)
(-372.806 490.74899 1.95)
(-349.47101 395.51099 13.5797)
(-349.47101 395.51099 1.9499998)
(-422.772 431.89801 21.828699)
(-334.29001 470.57397 1.9499999)
(-380.74301 510.87299 24.1437)
(-386.26801 513.172 24.117701)
(-304.84601 448.39899 15.9797)
(-303.444 447.90302 15.9787)
(-420.91101 432.39001 24.131701)
(-383.23499 505.06799 24.1607)
(-321.67899 493.65997 1.950001)
(-283.505 481.672 13.5797)
(-283.505 481.672 1.95)
(-378.04901 513.65802 1.95)
(-307.453 438.323 15.3347)
(-294.21201 486.08099 1.9499998)
(249.183 589.65503 3.5710399)
(249.183 589.65503 1.9500003)
(244.515 578.44702 3.5580299)
(244.515 578.44702 1.9500002)
(248.36 576.85498 3.5910299)
(248.35999 576.85498 1.95)
(253.028 588.06403 3.6040399)
(253.02802 588.06409 1.9500002)
(158.392 335.38901 5.7067599)
(158.39201 335.38901 1.95)
(158.325 335.41199 5.7067599)
(158.325 335.41199 1.95)
(159.01601 316.215 8.6087599)
(154.347 318.22101 8.6027603)
(158.048 328.63901 8.7107601)
(163.30299 326.51199 8.7007599)
(158.983 330.854 8.6937599)
(164.259 328.66 8.6847601)
(167.92 338.51099 8.7997599)
(166.09801 337.96899 8.79076)
(170.578 337.41199 5.6647601)
(153.548 315.91599 8.5767603)
(161.651 322.474 8.6857595)
(160.44701 320.38599 8.6867599)
(149.614 314.59 6.9847598)
(159.297 310.53 6.9847498)
(167.49001 330.03601 6.9847498)
(157.76801 334.23499 6.9847598)
(162.97701 340.59399 5.6947598)
(156.38 324.58401 8.7067604)
(155.436 322.401 8.7067604)
(149.614 314.59 1.9500005)
(159.297 310.53 1.9500006)
(170.578 337.41199 1.9500003)
(157.961 334.737 5.7077599)
(157.961 334.737 1.9499998)
(162.97701 340.59399 1.9500003)
(168.672 338.202 8.80476)
(168.21899 336.82001 8.80476)
(157.994 313.867 8.5817604)
(143.96201 325.51199 5.6937599)
(143.96201 325.51199 1.9500003)
(151.127 342.88599 5.6937599)
(151.127 342.88599 1.9500003)
(146.498 344.797 5.6937599)
(139.36 327.40701 5.6937599)
(139.36 327.40701 1.95)
(146.498 344.797 1.9500003)
(-26.245701 634.94299 8.63587)
(-30.7761 623.961 8.63587)
(-7.7951498 627.14301 8.6358604)
(-21.3461 595.20697 6.63586)
(-12.4903 616.30402 8.6358604)
(-19.357 632.41901 8.63587)
(-84.631798 172.048 6.8217802)
(-84.63179 172.048 1.9499984)
(-86.438103 167.634 6.8217802)
(-86.438103 167.634 1.9499984)
(-98.315804 177.722 6.8217802)
(-98.315811 177.72202 1.95)
(-100.166 173.263 6.8217802)
(-100.166 173.263 1.9499984)
(145.575 238.825 14.5857)
(145.625 237.416 14.5037)
(132.83701 242.88 12.9937)
(132.83701 242.88 1.9500008)
(148.58 244.879 14.8097)
(146.349 246.006 14.8437)
(145.244 237.168 14.5067)
(143.17799 238.151 14.6587)
(143.763 239.09 14.6857)
(194.073 227.175 12.9937)
(194.073 227.175 1.95)
(180.26801 224.19701 14.9027)
(179.815 223.037 14.8967)
(139.90199 253.039 12.9937)
(177.826 223.92101 14.4977)
(147.194 247.161 14.8187)
(181.013 231.616 14.4967)
(181.5 232.853 14.5147)
(194.03999 227.009 12.9937)
(190.692 218.84399 12.9937)
(134.07899 238.996 12.9937)
(192.77499 230.87 12.9937)
(192.77499 230.87 1.9500003)
(178.323 224.992 14.5147)
(183.963 231.825 14.9917)
(187.041 217.004 12.9937)
(187.041 217.004 1.95)
(149.332 246.47099 14.7827)
(134.07899 238.996 1.9500008)
(139.90199 253.039 1.9499999)
(183.942 230.832 15.0367)
(181.88699 230.765 14.6887)
(192.388 231.235 12.9937)
(190.69202 218.84399 1.95)
(194.04001 227.00902 1.95)
(136.289 251.194 12.9937)
(136.289 251.19402 1.95)
(192.388 231.235 1.9500003)
(-49.3377 252.464 4.8157902)
(-49.3377 252.464 1.95)
(-62.518101 257.88901 4.8347902)
(-62.518097 257.88901 1.95)
(-56.762299 246.896 9.88379)
(-70.424301 258.293 4.8437901)
(-70.424301 258.293 1.95)
(-54.486801 245.946 1.95)
(-54.486801 245.946 4.8157902)
(-67.053497 223.61099 9.8837795)
(-50.387001 249.957 4.8147898)
(-50.387001 249.95699 1.95)
(-70.904404 258.38699 9.88379)
(-54.9118 252.23801 9.88379)
(-70.904404 258.38699 1.9499989)
(210.806 316.651 6.0297399)
(207.76199 309.276 6.0167398)
(216.369 314.34698 6.0397401)
(216.369 314.34698 1.9499997)
(206.89656 309.63757 1.9499991)
(213.319 306.96701 6.0267401)
(213.319 306.96701 1.95)
(209.94565 317.01715 1.9499998)
(-18.047501 145.735 7.3677602)
(-17.6835 145.57001 6.7897601)
(-22.3626 135.588 6.8207598)
(-27.4284 137.94701 7.8527598)
(-33.271999 140.675 7.54776)
(-33.271999 140.675 1.9499993)
(-33.676201 140.935 6.88976)
(-29.008301 150.86301 6.8357601)
(-29.008301 150.86301 1.9499999)
(-22.3626 135.588 1.9499998)
(-21.290701 144.30499 10.6978)
(-17.6835 145.57001 1.9499998)
(-24.953899 136.798 10.8678)
(-30.980801 139.61 11.1228)
(-33.676201 140.935 1.9500004)
(-27.7367 147.271 10.6208)
(-28.6485 150.69099 7.3867602)
(257.702 663.58099 30.562099)
(258.535 663.31 30.549101)
(248.58099 641.06897 30.5581)
(258.46899 637.258 30.4)
(267.21399 659.659 30.408001)
(251.91701 657.57599 28.254101)
(248.653 649.71503 28.250999)
(270.95401 649.56598 28.254)
(267.83899 642.03101 28.254999)
(272.617 640.047 27.652)
(273.97101 639.98602 27.652)
(272.358 656.49298 29.131001)
(272.32401 656.50403 29.129)
(270.56699 649.88599 27.652)
(244.271 651.47699 28.2141)
(247.66901 659.51501 28.171101)
(253.724 656.86298 27.204)
(249.78 658.57501 27.6521)
(246.48801 650.599 27.652)
(245.77499 647.98602 28.659)
(246.388 647.75897 28.684)
(275.58899 657.64697 28.754999)
(276.08099 657.034 28.787001)
(276.60599 658.31097 28.789)
(275.78799 658.64203 28.747)
(277.66599 660.83002 27.660999)
(276.34601 661.36499 27.662001)
(273.452 638.76001 27.652)
(252.636 654.31598 28.1791)
(251.47 651.60498 28.2491)
(269.353 640.98102 27.305)
(269.48499 654.461 28.945999)
(245.261 646.72101 28.702)
(245.66901 646.55499 28.719)
(244.515 644.91498 28.764)
(244.013 643.52802 28.813999)
(266.436 652.25 28.75)
(270.46799 651.90802 29.007999)
(267.811 625.07703 26.955)
(271.711 649.43903 27.858999)
(272.573 648.71002 27.288)
(250.27699 648.86499 27.2731)
(260.298 639.17401 28.35)
(262.79501 643.74902 27.652)
(259.38699 639.5 30.4)
(269.159 651.43799 28.924)
(264.85001 642.578 27.652)
(244.653 643.37299 28.834999)
(245.007 644.65503 28.788)
(253.763 653.85199 30.559999)
(248.85699 675.729 26.9641)
(276.64499 647.60999 26.966)
(282.556 661.78497 26.972)
(-210.36501 382.147 3.7448599)
(-200.576 378.103 3.7188499)
(-210.36501 382.147 1.95)
(-211.40401 379.64999 3.7448599)
(-211.40401 379.64999 1.95)
(-201.614 375.60599 3.7188499)
(-201.614 375.60599 1.95)
(-200.576 378.103 1.95)
(150.326 624.57397 3.70083)
(150.326 624.57397 1.95)
(151.47 627.35303 3.70783)
(151.47 627.35303 1.95)
(146.603 629.336 3.6338301)
(145.465 626.56299 3.6268301)
(145.465 626.56299 1.9499998)
(146.603 629.336 1.9499999)
(-14.2362 217.16499 11.4358)
(-12.3524 216.353 11.4358)
(11.8766 216.894 11.7828)
(14.3854 213.83299 11.7858)
(8.0871801 208.94901 12.7718)
(8.5793304 210.325 12.7748)
(-5.0162201 221.965 11.4138)
(-30.3172 222.20799 9.6617804)
(-6.84479 222.78799 11.4138)
(-29.996901 222.043 9.66078)
(-29.996901 222.043 1.9500002)
(13.4902 211.701 11.7858)
(7.1043 210.972 12.8328)
(6.4028502 209.21001 12.8308)
(-6.3477001 211.972 11.7678)
(7.4189601 206.24899 11.7808)
(17.672001 222.246 10.0438)
(-1.81231 213.015 12.8068)
(-1.1936001 214.42999 12.7748)
(-0.226274 212.12601 12.8258)
(11.965 216.80499 11.7828)
(21.6106 223.048 5.7447701)
(21.6106 223.048 1.9500005)
(-22.191099 221.097 10.0888)
(-25.5888 212.573 10.0878)
(0.30900601 213.76801 12.7888)
(14.6555 195.675 7.3127599)
(14.6555 195.675 1.9500006)
(18.5502 224.31799 5.67977)
(-8.0270796 214.668 11.4138)
(-25.5888 212.573 1.9499999)
(14.816 196.056 10.0348)
(21.0746 220.832 10.0398)
(-22.9704 219.214 10.0888)
(-11.214 224.47301 11.4118)
(-9.2864304 223.793 11.4118)
(18.5502 224.31799 1.95)
(24.4998 219.35201 10.0348)
(-1.93323 222.617 11.7698)
(24.499802 219.35201 1.9500002)
(-10.0324 215.181 11.4138)
(21.875799 222.871 5.7477698)
(21.875799 222.871 1.95)
(14.4674 195.75301 7.3257599)
(-29.532301 224.05299 9.7077799)
(14.467399 195.75301 1.95)
(-15.7946 236.06799 10.0878)
(74.958504 197.951 21.7467)
(65.898499 187.43201 21.874701)
(63.302502 200.967 22.481701)
(67.158203 190.37199 21.8927)
(60.728001 189.731 22.7857)
(64.826797 191.576 22.776699)
(63.456799 194.36 23.780701)
(58.954498 189.548 23.7307)
(59.821701 195.98399 23.342699)
(64.219597 193.75301 23.7757)
(61.081799 188.936 22.481701)
(61.1367 195.26601 23.6187)
(62.263802 194.979 23.786699)
(61.667099 193.808 23.779699)
(63.5397 191.217 23.7607)
(57.4576 187.875 22.501699)
(62.1259 201.382 22.488701)
(45.652401 185.79201 21.729799)
(64.059303 188.245 22.7617)
(64.495903 194.78 22.508699)
(60.5126 197.55901 22.933701)
(54.1651 206.237 22.358801)
(53.811501 206.414 22.358801)
(48.9841 194.73599 22.358801)
(73.571999 194.576 21.745701)
(61.916 194.94099 23.786699)
(58.849701 187.19 22.4928)
(61.567402 191.58701 23.765699)
(54.2924 206.541 21.7318)
(57.391102 189.75301 23.738701)
(59.8606 195.84599 23.6187)
(61.562302 196.222 23.1147)
(66.202904 176.86501 21.744699)
(52.600578 203.48465 9.8767691)
(53.945206 206.67899 1.9499999)
(53.945202 206.679 2.4547501)
(61.7943 196.98399 22.9268)
(45.177502 185.58299 1.9500002)
(45.177502 185.58299 1.98675)
(74.958504 197.951 1.9499987)
(65.882202 176.98599 21.744699)
(-119.932 253.067 21.2388)
(-102.514 245.82401 13.9188)
(-102.51399 245.82401 1.95)
(-102.845 246.15601 23.503799)
(-132.864 223.341 14.9338)
(-132.864 223.341 1.9499999)
(-125.357 240.79201 14.9228)
(-125.357 240.79201 1.9500009)
(-119.81 253.36501 21.243799)
(-119.711 217.84399 16.9538)
(-119.711 217.84399 1.95)
(-104.674 240.08501 23.5448)
(-102.641 245.87399 23.501801)
(-141.979 247.371 9.2518101)
(-141.979 247.371 1.95)
(-136.924 259.453 9.1508102)
(-136.06799 249.658 10.7318)
(-138.007 250.548 10.7318)
(-137.56 246.26601 10.7318)
(-120.401 253.746 14.8458)
(-120.401 253.746 1.95)
(-102.735 246.44299 14.8508)
(-102.735 246.44299 1.95)
(-112.375 235.43401 17.639799)
(-107.624 248.18401 23.5658)
(-110.988 240.39999 23.632799)
(-112.723 251.481 21.2258)
(-123.02 245.515 21.1238)
(-125.539 241.229 17.7068)
(-123.611 245.76401 17.653799)
(-120.976 243.14 18.5298)
(-130.843 255.371 9.9028101)
(-121.23 225.47301 17.796801)
(-122.396 221.965 17.792801)
(-121.595 221.396 17.781799)
(-125.887 253.12199 12.6328)
(-113.872 251.702 21.2278)
(-112.386 280.23499 5.0498099)
(-112.386 280.23499 1.9499996)
(-109.21 278.948 5.0598102)
(-109.21 278.948 1.9499997)
(-138.17799 245.82401 10.7318)
(-138.17799 245.82401 1.95)
(-100.967 238.444 13.9198)
(-100.967 238.444 1.9500009)
(-114.209 231.036 16.9538)
(-120.932 233.505 16.924801)
(-120.319 252.14999 21.2248)
(-111.994 255.967 16.2528)
(-124.987 240.76401 17.705799)
(-126.29 220.59 16.9258)
(-111.198 255.216 16.288799)
(-129.31799 254.11099 12.6968)
(-125.986 254.52499 10.7678)
(-105.237 239.12399 23.5548)
(-110.424 240.168 23.6248)
(-109.955 240.416 23.6178)
(-105.939 238.776 23.5658)
(-110.668 275.36899 14.9408)
(-113.872 276.716 14.9398)
(-93.8302 268.51801 14.9448)
(-122.59 269.767 14.8998)
(-132.649 223.77699 14.9338)
(-132.649 223.77699 1.9499999)
(-98.078499 259.63 14.9058)
(-98.078499 259.63 1.95)
(-133.31799 257.978 9.1448097)
(-133.31799 257.978 1.9500004)
(-136.92401 259.453 1.95)
(-120.562 253.321 14.8438)
(-120.562 253.321 1.95)
(-94.2715 268.69501 14.9448)
(-94.2715 268.69501 1.9499999)
(-129.72099 251.27699 12.6868)
(-119.954 224.80499 17.7798)
(-123.479 244.173 18.549801)
(-130.019 252.30499 12.6978)
(-128.69901 255.658 10.9018)
(-132.505 245.92999 9.9028101)
(-136.63699 245.554 9.23981)
(-136.63699 245.554 1.95)
(-126.395 241.3 9.2228003)
(-119.297 278.98099 14.9388)
(-126.395 241.3 1.95)
(-109.95499 240.41599 1.95)
(-118.833 278.78201 14.9388)
(-118.833 278.78204 1.95)
(-97.609001 259.436 14.9058)
(-97.609001 259.43604 1.95)
(-119.297 278.98099 1.9499991)
(-99.017601 243.134 13.9418)
(-99.017601 243.134 1.95)
(-139.687 246.438 10.7318)
(-122.59 269.767 1.9499991)
(-93.8302 268.51801 1.9500004)
(-123.048 269.97101 14.8998)
(-123.048 269.97101 1.9500002)
(-105.237 239.12399 1.95)
(-106.253 238.90199 23.569799)
(-194.548 794.78198 3.4297299)
(-194.548 794.78198 1.9499999)
(-196.74776 784.03223 1.9499998)
(-147.189 821.45898 27.4967)
(-143.106 826.07098 16.287701)
(-150.967 819.66803 35.3647)
(-158.23801 825.70099 26.057699)
(-150.283 811.07397 12.9937)
(-143.2 827.92297 15.7357)
(-147.647 811.896 13.3267)
(-144.80299 829.98901 15.6677)
(-176.036 871.18903 13.9897)
(-176.036 871.18909 1.9500002)
(-150.222 809.85199 12.8857)
(-151.76801 809.14502 12.8297)
(-152.261 809.27301 12.8407)
(-147.17799 821.47101 27.5007)
(-157.71201 811.55402 11.6007)
(-157.039 826.547 26.560699)
(-148.177 827.93903 26.1047)
(-151.01801 822.315 35.367699)
(-162.105 813.74799 11.0037)
(-142.869 815.61401 14.5367)
(-143.416 815.112 14.3897)
(-147.737 822.98999 27.7127)
(-149.658 821.508 26.946699)
(-149.006 820.43701 26.8557)
(-147.592 820.96698 27.293699)
(-147.67599 820.92902 27.266701)
(-149 832.41901 15.1877)
(-157.614 832.20398 13.6707)
(-146.96201 818.06201 26.3787)
(-141.40601 822.42603 15.4857)
(-141.388 820.58502 15.3017)
(-154.951 821.82898 35.363701)
(-148.024 817.92999 28.0467)
(-149.69099 816.172 27.0767)
(-147.653 818.43201 28.4657)
(-141.759 826.84497 16.144699)
(-142.112 823.79602 16.2777)
(-140.853 823.90698 16.1667)
(-155.47 816.00702 26.040701)
(-152.58099 829.10498 26.051701)
(-162.845 816.32202 11.1387)
(-146.58701 830.72198 17.258699)
(-156.414 827.83301 26.0567)
(-152.82899 823.685 35.367699)
(-151.172 828.92297 26.0487)
(-109.629 825.34302 18.4377)
(339.76501 630.12 4.24402)
(339.76501 630.12 1.95)
(344.20001 628.28101 4.24402)
(344.20001 628.28101 1.95)
(343.879 640.07001 4.1940298)
(349.095 640.11298 3.9300201)
(349.095 640.11298 1.9499999)
(348.43201 638.52197 4.1930199)
(344.91299 642.51703 3.91803)
(344.91299 642.51703 1.95)
(349.13901 640.77698 3.93102)
(349.13898 640.77698 1.95)
(139.90199 496.284 11.4938)
(139.90199 496.284 1.9499991)
(139.731 495.80301 11.4938)
(139.731 495.80301 1.9500002)
(265.806 475.10901 9.7147703)
(266.41299 474.83301 9.7197704)
(265.806 475.10901 1.9499989)
(228.528 493.11899 11.4588)
(228.528 493.11899 1.95)
(198.20599 505.664 11.6298)
(18.0807 580.98199 5.8618498)
(18.0807 580.98199 1.9500004)
(107.187 509.84 11.4838)
(107.187 509.84 1.9500003)
(80.6045 554.58698 9.0058298)
(80.543701 554.61499 9.0058298)
(126.08 534.61102 31.937799)
(125.655 535.73297 9.0058098)
(238.914 466.116 30.7948)
(266.17099 474.28101 9.71877)
(266.17099 474.28101 1.95)
(89.233299 575.32501 5.9138298)
(89.233299 575.32501 1.95)
(45.1049 546.35602 23.194799)
(82.908302 573.10999 8.5468302)
(81.808701 573.38098 8.5448303)
(12.286 568.07202 19.1238)
(13.0539 567.77899 19.042801)
(260.099 459.591 9.7007599)
(259.508 459.84 9.6957703)
(260.099 459.591 1.9499993)
(244.653 464.34299 35.373798)
(247.935 462.983 35.373798)
(246.813 463.453 35.373798)
(248.88499 465.392 35.373798)
(217.336 466.06 11.4838)
(217.336 466.06 1.9499998)
(157.39799 521.77802 31.126801)
(253.619 459.608 11.4838)
(62.324402 548.63702 38.8438)
(211.16499 479.42401 35.373798)
(261.707 479.142 11.7158)
(123.23 522.65698 36.394798)
(115.954 526.20898 38.8568)
(114.579 527.396 38.853802)
(217.959 474.905 30.878799)
(129.59399 523.36401 36.9258)
(128.71001 522.70099 36.923801)
(18.263201 579.17603 26.871799)
(42.674599 563.98901 29.7248)
(160.767 487.84799 12.3918)
(227.55 471.50201 35.373798)
(64.208099 546.80902 38.848801)
(243.02901 495.20001 11.4588)
(264.823 486.72101 1.95)
(264.823 486.72101 11.4588)
(260.22 476.772 11.4588)
(192.836 509.62 11.7458)
(192.836 509.62 1.9500002)
(70.7658 535.82098 35.373798)
(52.0438 562.39801 28.1458)
(52.475101 562.12201 27.9748)
(16.523001 564.84003 28.313801)
(17.3347 564.45898 28.028799)
(52.678699 565.64099 26.871799)
(12.1028 568.15503 8.9978504)
(12.1028 568.15503 1.9499991)
(50.7957 550.76398 29.639799)
(148.062 516.508 38.8358)
(163.83299 489.05801 12.4038)
(162.98801 486.931 12.3958)
(239.041 466.06601 18.914801)
(67.257202 560.02301 18.994801)
(67.379501 559.96698 18.913799)
(199.099 491.754 38.834801)
(200.537 495.13501 38.816799)
(58.264198 562.38702 35.373798)
(89.1782 575.40198 5.9138298)
(89.1782 575.40198 1.95)
(41.8353 581.755 7.4198399)
(197.929 498.49301 38.151798)
(192.32201 500.70901 38.151798)
(254.194 462.83401 11.4838)
(189.26601 493.45499 38.151798)
(141.39301 515.71802 36.382801)
(141.631 516.35303 36.3908)
(51.259602 563.69098 27.941799)
(255.382 480.32901 35.373798)
(51.1436 591.15302 5.8618398)
(51.1436 591.15302 1.9500002)
(144.99001 513.61298 38.854801)
(144.465 513.66302 38.855801)
(24.6766 570.82898 30.275801)
(239.875 472.733 38.151798)
(242.80299 479.90399 38.151798)
(63.6283 551.84198 38.8288)
(153.061 517.04401 38.151798)
(147.67999 519.30798 38.151798)
(44.702599 552.44897 29.7568)
(112.49 534.05902 38.151798)
(78.333298 565.08899 8.2878304)
(225.379 494.43301 8.0377798)
(225.379 494.43301 1.95)
(212.049 499.04599 31.105801)
(212.397 499.836 11.6108)
(11.2416 566.01099 26.871799)
(197.67 504.42099 35.373798)
(64.561699 546.23401 38.151798)
(238.019 487.45001 35.373798)
(224.50101 479.987 38.151798)
(224.584 478.87701 38.151798)
(226.48399 480.336 38.825802)
(221.761 482.28601 38.827801)
(122.125 526.06 36.5298)
(126.914 523.07098 36.791801)
(44.889999 548.74701 28.007799)
(44.928902 548.43298 27.9918)
(208.575 482.79901 35.373798)
(228.108 483.771 38.8078)
(241.974 496.17899 11.4588)
(241.974 496.17899 1.9500009)
(231.61099 500.48801 11.4588)
(14.4016 569.21503 28.906799)
(14.5728 569.65198 28.8958)
(257.18701 477.62799 11.4588)
(194.86301 491.14099 38.151798)
(48.425499 561.82898 29.716801)
(50.160702 560.07202 27.9238)
(52.5303 564.51898 28.6598)
(14.9709 570.04999 28.9468)
(15.0423 570.69501 26.871799)
(34.499001 598.06299 7.9158502)
(34.499001 598.06299 1.9499997)
(229.578 470.03799 30.8318)
(70.947601 533.70502 12.3988)
(70.1026 534.93799 11.7388)
(72.600098 532.96997 12.8348)
(226.32401 484.505 38.8078)
(227.782 491.88599 35.373798)
(37.001499 567.508 27.9828)
(218.164 473.78299 11.4838)
(221.181 474.14801 35.373798)
(158.386 522.237 18.337799)
(157.97701 522.40302 18.337799)
(198.16701 503.85699 35.373798)
(248.576 464.10999 35.373798)
(81.891502 523.25897 12.4268)
(84.051003 522.36902 12.4108)
(25.8815 562.66302 29.7738)
(212.756 476.021 10.8688)
(212.756 476.021 1.9500005)
(214.76199 475.198 10.8628)
(38.316002 574.87701 6.4608402)
(118.269 531.48499 38.151798)
(141.399 518.59601 36.458801)
(52.513302 565.69598 26.871799)
(50.2873 546.27899 35.373798)
(130.367 523.03198 36.9258)
(129.588 521.67902 36.923801)
(87.349602 520.93903 12.4118)
(230.339 470.358 35.373798)
(54.949299 565.08301 8.95784)
(27.2505 568.32001 29.271799)
(25.428301 572.552 30.275801)
(110.618 519.90002 35.373798)
(120.661 528.30798 38.840801)
(119.208 524.646 38.858799)
(115.435 529.62299 38.8438)
(38.062099 555.39801 29.764799)
(150.18201 503.02899 31.142799)
(194.371 493.78699 38.8358)
(195.515 497.27301 38.817799)
(245.42599 464.05499 35.373798)
(39.453701 566.55798 28.517799)
(38.857601 564.59198 28.517799)
(49.7407 548.33899 29.635799)
(47.469501 549.33899 28.1028)
(34.791801 568.48102 29.7318)
(191.991 507.05099 35.373798)
(232.98 467.51901 12.8328)
(232.638 466.20401 12.8058)
(152.382 524.67297 11.6438)
(233.593 466.18799 12.7828)
(158.646 521.25897 31.126801)
(209 482.03 35.373798)
(64.749802 545.229 38.151798)
(67.014603 546.69897 38.844799)
(38.0452 576.33002 7.9158401)
(163.19701 519.35901 31.126801)
(141.797 515.547 38.853802)
(143.39301 518.823 38.8358)
(28.903 559.98401 29.1758)
(33.427101 558.09998 29.1868)
(109.85 541.362 35.373798)
(108.943 542.66602 9.0058203)
(184.582 489.12399 35.373798)
(45.0611 593.68799 7.9158502)
(104.452 534.15302 36.2318)
(106.243 538.10797 36.2038)
(106.933 537.164 36.208801)
(214.79401 476.77701 35.373798)
(213.927 477.85501 35.373798)
(32.466099 574.10999 26.871799)
(164.209 486.42899 12.4088)
(167.159 487.78799 12.3818)
(165.05901 488.694 12.3878)
(45.160801 586.62799 7.2608399)
(215.38 474.93301 8.0637798)
(16.893499 566.75702 28.417801)
(17.8813 565.492 27.986799)
(201.09399 502.63101 35.373798)
(253.149 482.03101 31.0818)
(186.77 476.32999 11.4938)
(186.94099 476.767 11.4938)
(140.228 496.29999 11.4938)
(159.03799 523.63898 17.413799)
(127.621 524.22101 36.719799)
(46.470402 552.44897 27.945801)
(244.416 463.92899 31.142799)
(246.78 463.37601 31.142799)
(47.6689 553.47101 29.2798)
(49.812099 558.53198 29.2878)
(253.575 475.297 31.969801)
(75.942596 580.90399 5.86584)
(15.6992 568.21503 29.153799)
(16.291 568.71802 29.187799)
(15.4574 570.27002 28.951799)
(49.8503 561.39801 27.986799)
(54.1269 558.51501 29.747801)
(56.877499 564.271 26.222799)
(14.9709 569.91699 28.9438)
(14.8761 569.867 28.944799)
(27.985901 567.729 29.751801)
(26.6933 564.84497 29.764799)
(250.774 452.78601 11.4838)
(40.167198 574.12097 7.4198399)
(43.133499 581.32898 7.4198399)
(109.358 526.55103 38.151798)