/*--------------------------------*- C++ -*----------------------------------*\
  =========                 |
  \\      /  F ield         | OpenFOAM: The Open Source CFD Toolbox
   \\    /   O peration     | Website:  https://openfoam.org
    \\  /    A nd           | Version:  7
     \\/     M anipulation  |
\*---------------------------------------------------------------------------*/
FoamFile
{
    version     2.0;
    format      ascii;
    class       extendedFeatureEdgeMesh;
    location    "constant/extendedFeatureEdgeMesh";
    object      ROTATED_45DEG_DelftCampus_LoD2_EWI_xyz0_rotate.extendedFeatureEdgeMesh;
}
// * * * * * * * * * * * * * * * * * * * * * * * * * * * * * * * * * * * * * //

// points

20332
(
(338.92453 275.97302 14.079)
(334.15088 287.19125 9.3170004)
(334.15088 287.19125 1.9499999)
(331.83157 286.06696 9.3170004)
(331.83157 286.06696 1.9499999)
(324.0343 290.81662 5.3350101)
(327.39304 296.84821 1.95)
(329.51791 298.12878 12.372)
(329.51791 298.12878 1.9500003)
(328.33139 300.97278 12.381)
(323.61993 312.31689 12.353)
(322.51825 315.37866 12.38)
(322.57346 315.25424 12.379)
(322.57346 315.25424 1.9499986)
(311.92438 340.785 12.327)
(310.7131 343.65942 12.32)
(286.15881 321.78503 16.361)
(284.87051 321.09775 16.356001)
(286.15106 318.15973 16.356001)
(286.06549 318.1293 16.355)
(326.97095 291.69131 1.9500003)
(323.7684 312.37912 7.0740099)
(323.7684 312.37912 1.95)
(323.6199 312.31693 1.95)
(328.45581 301.00388 7.0480099)
(328.45587 301.00391 1.9500002)
(328.29956 301.06683 12.381)
(329.65085 297.78516 12.371)
(329.65085 297.78516 1.9500002)
(292.07309 332.59811 7.33002)
(283.95621 349.84799 14.079)
(276.06488 346.59814 14.079)
(276.06488 346.59814 1.95)
(317.86194 326.5983 7.0620198)
(317.86197 326.59827 1.9500002)
(304.72958 358.44077 2.3110299)
(304.72958 358.44077 1.95)
(310.82339 343.69052 6.9920201)
(310.82339 343.69052 1.9499999)
(310.69049 343.72305 12.32)
(312.01846 340.81686 7.04702)
(312.01846 340.81686 1.9499987)
(309.68994 339.90961 12.362)
(357.2139 289.97302 43.289001)
(327.39304 296.84821 12.324)
(366.87015 287.37939 6.7280002)
(366.87012 287.37939 1.95)
(311.89325 260.97244 14.079)
(351.6673 294.12939 41.236)
(350.23685 293.5347 41.244999)
(303.83789 304.19083 7.3610101)
(302.75958 307.15997 7.3170099)
(291.0181 335.62881 7.3320198)
(308.29196 342.72318 12.358)
(306.12045 355.09827 7.0210299)
(275.96304 346.41003 14.079)
(275.96304 346.41003 1.95)
(319.47913 264.12756 14.079)
(319.47913 264.12756 1.9499999)
(320.19049 268.15948 14.079)
(338.91678 275.69092 14.079)
(341.04944 286.62842 41.998001)
(342.34625 283.28522 43.139)
(326.05731 300.12848 12.334)
(308.03391 292.72296 14.079)
(309.03442 289.44128 14.079)
(309.84619 289.78494 7.3000002)
(311.3078 260.84802 14.079)
(280.29266 342.81723 16.745001)
(281.95648 338.15952 16.768)
(285.76001 339.75406 16.767)
(283.81479 344.31702 16.743999)
(284.87054 321.09778 1.95)
(286.07733 318.13351 1.9500004)
(291.01031 320.19055 16.372999)
(308.83081 293.03482 7.3870101)
(293.91721 317.0347 15.971)
(292.7215 319.97275 15.968)
(343.57309 280.0983 42.028)
(347.5491 281.66028 42.002998)
(345.79199 280.53528 41.882)
(335.55731 284.06659 14.079)
(338.60425 285.78555 39.205002)
(362.37857 291.59793 43.134998)
(361.15106 294.6286 42.101002)
(362.67416 290.84842 42.874001)
(344.84589 289.06723 41.416)
(345.08133 288.41031 41.966)
(322.26865 295.06702 6.9490099)
(313.52597 290.41003 14.079)
(310.37796 289.12872 14.079)
(316.26035 284.15991 14.079)
(320.15936 314.40994 12.394)
(321.22144 311.4104 12.369)
(339.39337 283.53552 39.202)
(292.17422 316.25336 15.978)
(342.27625 277.09732 39.189999)
(285.00342 333.87936 16.375999)
(286.81503 335.03482 16.382999)
(319.42468 313.6908 7.0710101)
(285.31525 334.47266 16.378)
(284.96381 332.37891 18.296)
(285.00345 331.72275 18.296)
(288.29926 322.91006 16.771)
(323.69772 312.12878 12.352)
(326.97095 291.69131 5.2730098)
(327.74518 289.72339 5.3080001)
(350.79193 292.00388 40.574001)
(327.40085 281.19077 9.3170004)
(366.6983 287.31644 39.172001)
(309.47073 340.19104 12.363)
(311.95621 340.72348 12.327)
(316.70584 329.47272 7.05902)
(316.70584 329.47272 1.95)
(291.11987 319.12915 15.974)
(287.47897 333.34836 18.313999)
(289.54944 328.97281 18.323999)
(341.37823 287.56674 41.390999)
(313.21277 281.50403 14.079)
(363.58136 288.81693 42.146)
(360.5882 286.69064 41.882999)
(294.75299 353.62888 3.4140301)
(285.21344 338.47348 16.243)
(293.995 354.00366 3.41503)
(289.92416 324.47275 16.879999)
(351.15891 292.06677 40.542)
(351.97067 293.19107 40.831001)
(319.04211 313.50342 7.0710101)
(289.22983 328.56693 15.724)
(288.50995 326.72278 16.933001)
(289.02615 326.75388 14.772)
(283.45554 337.56696 16.247)
(339.33118 283.62888 39.202)
(338.97897 284.09839 39.202999)
(287.57306 327.94113 18.309999)
(289.58124 323.59808 16.834999)
(320.26047 268.00464 2.1689999)
(320.26047 268.00464 1.9499999)
(341.3931 277.90982 39.192001)
(339.23709 283.19116 39.201)
(366.73718 287.22238 18.868999)
(366.71313 287.28461 18.874001)
(366.59647 288.06738 39.173)
(362.2923 298.50357 39.191002)
(361.91754 298.75385 39.192001)
(337.52591 288.62881 39.209999)
(-14.207404 176.25398 4.8617301)
(-12.504677 172.15985 4.8457298)
(-14.207404 176.25398 1.9499999)
(-17.106535 175.06606 4.8937302)
(-17.106535 175.06606 1.9500003)
(-15.403117 170.9415 4.8777299)
(-15.403117 170.9415 1.95)
(-12.504677 172.15985 1.95)
(-240.81744 677.62878 13.5797)
(-240.81744 677.62878 1.9499997)
(-224.91109 684.34698 13.5797)
(-224.91109 684.34698 1.95)
(-221.32533 685.84674 13.5797)
(-221.32533 685.84674 1.95)
(-271.48892 727.97192 13.5797)
(-269.31738 775.37848 13.5797)
(-269.31738 775.37848 1.95)
(-326.72311 654.25391 13.5797)
(-326.72311 654.25391 1.9500002)
(-322.31714 643.56744 13.5797)
(-322.31714 643.56744 1.9499999)
(-315.23901 638.72235 13.5797)
(-315.23901 638.72235 1.9500002)
(-314.98871 638.37866 13.5797)
(-314.98871 638.37866 1.9499991)
(-301.21567 644.53473 13.5797)
(-301.21567 644.53473 1.9500002)
(-322.70819 747.00372 15.6537)
(-322.2627 747.16071 15.6137)
(-225.34097 684.28619 13.5797)
(-225.34097 684.28619 1.9500003)
(-274.06705 786.81732 20.675699)
(-271.61404 780.91089 20.675699)
(-291.84088 748.12872 14.7227)
(-291.84015 748.41089 14.7087)
(-291.52832 747.66064 15.5007)
(-290.82547 745.34698 15.5427)
(-323.73138 745.03583 15.7837)
(-330.53656 710.75391 21.2257)
(-327.53561 703.81714 24.1567)
(-329.39529 708.09656 24.1287)
(-250.02893 679.87946 16.0327)
(-268.79413 773.84692 20.675699)
(-247.04353 675.03583 13.5797)
(-247.04353 675.03583 1.9500009)
(-290.8092 748.87897 14.7207)
(-289.50528 746.00391 15.5367)
(-290.4733 748.12872 15.4957)
(-345.67642 753.97156 21.610701)
(-345.23944 753.16119 21.609699)
(-265.77054 677.94061 15.7937)
(-267.20032 681.53552 15.8147)
(-346.80145 750.72241 24.1427)
(-350.41119 740.97211 24.1457)
(-277.49719 778.50391 24.1357)
(-257.40405 678.53601 16.043699)
(-256.81784 677.06732 16.043699)
(-269.07486 680.37939 15.8187)
(-239.70799 721.34705 13.5797)
(-239.70799 721.34705 1.950001)
(-239.8098 721.41071 13.5797)
(-343.91858 743.78638 24.155701)
(-333.7157 709.4104 21.269699)
(-312.65314 671.6615 20.675699)
(-268.67603 671.66077 15.2907)
(-266.2153 671.66077 15.1997)
(-276.8403 699.50378 15.2317)
(-275.30939 700.06738 15.2117)
(-340.88013 747.1911 21.9657)
(-341.20822 748.00427 21.9657)
(-325.25449 745.59729 15.5997)
(-267.17627 719.09705 13.5797)
(-267.1763 719.09705 1.9499999)
(-270.8327 727.69049 13.5797)
(-270.8327 727.69049 1.9499996)
(-270.97342 727.75348 13.5797)
(-252.77109 678.75378 15.9817)
(-252.82553 679.06702 15.9807)
(-253.29434 680.16089 15.9817)
(-319.19247 747.87909 15.7367)
(-318.48111 745.78607 15.7137)
(-317.8334 746.47198 15.6777)
(-312.91122 673.31683 20.675699)
(-343.8634 746.78595 21.9387)
(-343.75449 746.22168 21.9377)
(-274.14481 734.41083 13.5797)
(-274.14478 734.41083 1.9500014)
(-273.98923 734.62866 13.5797)
(-273.98923 734.62866 1.9500014)
(-273.73892 735.03595 13.5797)
(-273.73892 735.03595 1.9500022)
(-330.3407 715.84717 20.675699)
(-276.23077 697.9411 15.2537)
(-275.01242 698.31659 15.2397)
(-267.75467 677.16138 15.8007)
(-275.08313 696.66052 14.4807)
(-273.90369 696.37909 14.4867)
(-274.70059 694.44092 14.5707)
(-273.48929 694.87866 14.5467)
(-264.30188 674.1286 16.0457)
(-243.44223 682.59692 16.0497)
(-239.30991 684.28546 15.9807)
(-250.88734 681.25409 16.0357)
(-246.44247 682.72205 15.9637)
(-333.81683 701.06726 24.1437)
(-335.73877 705.59698 24.113701)
(-244.09064 683.66107 16.0527)
(-240.02902 685.75415 15.9827)
(-318.46555 747.72217 15.7017)
(-319.1069 747.91095 15.7327)
(-266.63037 673.09692 15.3097)
(-325.73883 745.31659 15.6897)
(-263.71567 676.31708 16.0287)
(-261.2316 676.94147 15.9977)
(-322.62192 744.34644 15.7127)
(-322.15311 747.12885 15.6057)
(-333.66125 697.00421 21.852699)
(-333.48874 696.19104 21.852699)
(-326.3017 699.31641 21.8417)
(-326.58313 700.00372 21.8407)
(-245.97368 681.53625 15.9647)
(-355.16086 750.00397 21.825701)
(-325.20004 743.53607 15.7887)
(-324.54385 743.44128 15.7107)
(-361.41876 750.62903 20.675699)
(-322.72302 744.34711 15.7207)
(-317.96564 645.0976 13.5797)
(-301.17609 644.09778 13.5797)
(-264.08267 667.81696 13.5797)
(-225.74689 696.62946 13.5797)
(-265.05142 714.00378 13.5797)
(-265.52869 775.41107 13.5797)
(-260.32581 762.81744 13.5797)
(-303.80157 650.9093 13.5797)
(-303.80157 650.9093 1.95)
(-266.67633 656.84692 13.5797)
(-263.62164 658.09705 13.5797)
(-264.08267 667.81696 1.95)
(-225.87202 696.72205 13.5797)
(-225.87199 696.72211 1.9499998)
(-270.97342 727.75348 1.9500002)
(-317.96564 645.0976 1.9499999)
(-301.17609 644.09778 1.9500002)
(-278.02045 755.50458 13.5797)
(-278.02045 755.50458 1.95)
(-328.86356 671.66077 13.5797)
(-328.86356 671.66077 1.9499998)
(-354.9657 749.22192 21.828699)
(-269.40295 775.34668 24.1437)
(-271.68408 780.87909 24.117701)
(-259.91147 677.5036 15.9797)
(-259.27081 676.1615 15.9787)
(-353.30188 748.25391 24.131701)
(-275.26981 773.00403 24.1607)
(-239.80983 721.41064 1.950001)
(-221.29352 685.9408 13.5797)
(-221.29352 685.9408 1.95)
(-265.52869 775.41107 1.95)
(-268.8797 672.22223 15.3347)
(-225.74689 696.62946 1.9499998)
(231.72931 385.62903 3.5710399)
(231.72931 385.62903 1.9500003)
(220.50328 381.00455 3.5580299)
(222.09636 377.15997 3.5910299)
(233.32314 381.78522 3.6040399)
(233.32318 381.78525 1.9500002)
(-12.26285 270.03476 5.7067599)
(-12.262838 270.03473 1.95)
(-12.293978 270.09836 5.7067599)
(-12.293978 270.09836 1.95)
(-25.379683 256.03543 8.6087599)
(-27.262703 260.75537 8.6027603)
(-17.27906 265.505 8.7107601)
(-15.067248 260.28516 8.7007599)
(-15.051679 266.4101 8.6937599)
(-12.872375 261.12802 8.6847601)
(-3.3179638 265.505 8.7997599)
(-4.9895525 266.4101 8.79076)
(-2.2155802 262.84839 5.6647601)
(-29.457577 259.69046 8.5767603)
(-19.090677 258.59799 8.6857595)
(-21.418478 257.9729 8.6867599)
(-33.176956 261.53461 6.9847598)
(-29.200893 251.81683 6.9847498)
(-9.614727 259.81635 6.9847498)
(-13.520096 269.65994 6.9847598)
(-5.3402791 270.47314 5.6947598)
(-21.325827 263.81717 8.7067604)
(-23.536961 262.94104 8.7067604)
(-29.200893 251.81683 1.9500006)
(-2.2155802 262.84839 1.9500003)
(-13.028652 269.87848 5.7077599)
(-13.028652 269.87848 1.9499998)
(-5.3402791 270.47314 1.9500003)
(-3.0047097 264.75476 8.80476)
(-4.3022447 264.09787 8.80476)
(-27.762629 255.09781 8.5817604)
(-29.450499 273.25418 5.6937599)
(-29.450499 273.25418 1.9500003)
(-12.098815 280.47305 5.6937599)
(-12.098815 280.47305 1.9500003)
(-14.020722 285.09753 5.6937599)
(-31.364626 277.84827 5.6937599)
(-31.364626 277.84827 1.95)
(-14.020722 285.09753 1.9500003)
(68.995239 612.40997 8.63587)
(58.026318 607.84802 8.63587)
(76.526321 593.84802 8.6358604)
(44.362167 580.84784 6.63586)
(65.542023 589.50366 8.6358604)
(72.081558 605.75421 8.63587)
(-299.60614 326.379 6.8217802)
(-299.60614 326.37897 1.9499984)
(-304.00458 324.53506 6.8217802)
(-304.00458 324.53506 1.9499984)
(-305.27008 340.06717 6.8217802)
(-305.27008 340.06717 1.95)
(-309.73135 338.22247 6.8217802)
(-309.73135 338.22247 1.9499984)
(-89.606903 210.81667 14.5857)
(-90.567856 209.785 14.5037)
(-95.746704 222.69112 12.9937)
(-95.746704 222.69112 1.9500008)
(-83.201218 212.97263 14.8097)
(-83.981873 215.34709 14.8437)
(-91.012627 209.87904 14.5067)
(-91.778427 212.03502 14.6587)
(-90.700798 212.28532 14.6857)
(-63.55143 168.28561 12.9937)
(-63.55143 168.28561 1.95)
(-75.418793 175.94145 14.9027)
(-76.559364 175.44153 14.8967)
(-83.567505 224.87891 12.9937)
(-77.340714 177.47305 14.4977)
(-82.567657 215.5663 14.8187)
(-69.645988 180.66068 14.4967)
(-68.426933 181.19101 14.5147)
(-63.692146 168.19157 12.9937)
(-71.833069 164.78543 12.9937)
(-97.614883 219.06648 12.9937)
(-61.856503 171.81619 12.9937)
(-61.856503 171.81619 1.9500003)
(-76.231972 177.87894 14.5147)
(-67.412239 178.7225 14.9917)
(-75.71579 166.06599 12.9937)
(-75.71579 166.06599 1.95)
(-81.54377 213.5666 14.7827)
(-97.614883 219.06648 1.9500008)
(-83.567505 224.87891 1.9499999)
(-68.129234 178.0352 15.0367)
(-69.629723 179.44093 14.6887)
(-61.872051 172.34793 12.9937)
(-71.833054 164.78542 1.95)
(-63.692127 168.19157 1.95)
(-87.426888 226.12906 12.9937)
(-87.42688 226.12907 1.95)
(-61.872051 172.34793 1.9500003)
(-217.78676 358.285 4.8157902)
(-223.27066 371.44101 4.8347902)
(-226.97392 359.59781 9.88379)
(-228.57552 377.3172 4.8437901)
(-228.57552 377.3172 1.95)
(-226.03665 357.31702 1.95)
(-226.03665 357.31702 4.8157902)
(-250.71588 350.40979 9.8837795)
(-220.30145 357.25424 4.8147898)
(-220.30145 357.25424 1.95)
(-228.84854 377.72314 9.88379)
(-221.88805 362.06668 9.88379)
(-228.84854 377.72314 1.9499989)
(11.549675 219.72267 6.0297399)
(4.1823249 216.6602 6.0167398)
(13.854127 214.15985 6.0397401)
(13.854127 214.15985 1.9499997)
(3.8260417 217.52783 1.9499991)
(6.4790192 211.0981 6.0267401)
(6.4790192 211.0981 1.95)
(11.200221 220.58995 1.9499998)
(-271.13004 260.69067 7.3677602)
(-270.98932 260.31662 6.7897601)
(-281.35629 256.56689 6.8207598)
(-283.27029 261.81702 7.8527598)
(-285.47336 267.87805 7.54776)
(-285.47336 267.87805 1.9499993)
(-285.57532 268.34772 6.88976)
(-275.25446 272.06717 6.8357601)
(-275.25446 272.06717 1.9499999)
(-281.35629 256.56689 1.9499998)
(-274.43451 261.97281 10.6978)
(-270.98932 260.31662 1.9499998)
(-282.33301 259.25482 10.8678)
(-284.60629 265.50488 11.1228)
(-285.57532 268.34772 1.9500004)
(-276.89523 268.62808 10.6208)
(-275.12167 271.69113 7.3867602)
(290.0267 431.87875 30.562099)
(290.4241 431.09811 30.549101)
(267.65878 422.40988 30.5581)
(271.95587 412.72324 30.4)
(293.97943 422.37949 30.408001)
(281.68991 431.72318 28.254101)
(273.82336 428.47263 28.250999)
(289.48718 412.59805 28.254)
(281.95648 409.47266 28.254999)
(283.93216 404.69119 27.652)
(284.84647 403.69064 27.652)
(295.37808 416.50342 29.131001)
(295.36185 416.53525 29.129)
(289.43979 413.09799 27.652)
(271.97073 432.81708 28.2141)
(280.05722 436.09805 28.171101)
(282.46347 429.94125 27.204)
(280.88525 433.94067 27.6521)
(272.91757 430.62857 27.652)
(270.56573 429.2851 28.659)
(270.83865 428.6911 28.684)
(298.47873 415.03476 28.754999)
(298.39319 414.25342 28.787001)
(299.66739 414.78516 28.789)
(299.32306 415.59766 28.747)
(302.19815 415.81683 27.660999)
(301.64307 417.12848 27.662001)
(283.61255 403.19073 27.652)
(279.89316 428.90961 28.1791)
(277.1517 427.81711 28.2491)
(282.28461 407.65964 27.305)
(291.90973 417.09811 28.945999)
(269.30777 428.75406 28.702)
(269.47888 428.34814 28.719)
(267.50323 428.00449 28.764)
(266.16751 427.37872 28.813999)
(288.19037 417.69064 28.75)
(290.79959 414.59778 29.007999)
(269.94843 397.50418 26.955)
(289.93268 411.97302 27.858999)
(290.02673 410.84799 27.288)
(274.37064 426.72324 27.2731)
(274.604 412.78476 28.35)
(279.60468 414.25412 27.652)
(274.19034 413.65945 30.4)
(289.54163 415.19104 28.924)
(280.22974 411.97299 27.652)
(266.51044 426.81656 28.834999)
(267.6673 427.47278 28.788)
(280.36197 427.78461 30.559999)
(292.36227 446.72305 26.9641)
(292.1282 407.19083 26.966)
(306.33115 413.03433 26.972)
(-239.95053 563.84821 3.7448599)
(-235.88821 554.06683 3.7188499)
(-239.95053 563.84821 1.95)
(-242.45087 562.81726 3.7448599)
(-242.45087 562.81726 1.95)
(-238.38783 553.0351 3.7188499)
(-238.38783 553.0351 1.95)
(-235.88821 554.06683 1.95)
(186.51828 480.2229 3.70083)
(186.51828 480.2229 1.95)
(189.2923 481.37906 3.70783)
(189.2923 481.37906 1.95)
(187.25298 486.22275 3.6338301)
(184.48747 485.06662 3.6268301)
(184.48747 485.06662 1.9499998)
(187.25298 486.22275 1.9499999)
(-217.92642 308.5043 11.4358)
(-217.16855 306.59808 11.4358)
(-199.6535 289.84814 11.7828)
(-200.04398 285.9097 11.7858)
(-207.95099 286.90973 12.7718)
(-206.63002 287.5347 12.7748)
(-208.0128 305.37891 11.4138)
(-225.73146 323.44122 9.6617804)
(-208.72385 307.25385 11.4138)
(-225.62164 323.09808 9.66078)
(-225.62164 323.09808 1.9500002)
(-202.18452 285.03516 11.7858)
(-207.21552 289.03519 12.8328)
(-208.95743 288.28528 12.8308)
(-216.02042 299.2543 11.7678)
(-210.33269 285.47302 11.7808)
(-191.7711 289.53464 10.0438)
(-212.0759 296.78482 12.8068)
(-210.63785 297.34787 12.7748)
(-211.58301 295.0347 12.8258)
(-199.65393 289.72272 11.7828)
(-188.41899 287.31671 5.7447701)
(-220.77104 316.90964 10.0888)
(-229.20096 313.28479 10.0878)
(-210.04344 295.81726 12.7888)
(-212.69263 272.87909 7.3127599)
(-212.69263 272.87909 1.9500006)
(-189.685 290.37875 5.67977)
(-215.30154 302.34814 11.4138)
(-229.20096 313.28479 1.9499999)
(-212.30972 273.035 10.0348)
(-190.36494 286.12878 10.0398)
(-222.65356 316.12918 10.0888)
(-210.62186 311.53485 11.4118)
(-209.7397 309.69101 11.4118)
(-189.685 290.37875 1.95)
(-188.98949 282.66028 10.0348)
(-205.37175 303.65994 11.7698)
(-216.35678 304.12888 11.4138)
(-188.35663 287.00403 5.7477698)
(-188.35663 287.00403 1.95)
(-212.77048 273.06723 7.3257599)
(-223.87184 324.19083 9.7077799)
(-212.77048 273.06723 1.95)
(-205.66194 322.97272 10.0878)
(-168.44258 231.84779 21.7467)
(-182.28703 230.81613 21.874701)
(-174.55199 242.22246 22.481701)
(-179.3174 232.00427 21.8927)
(-184.31749 236.09785 22.7857)
(-180.11459 234.50418 22.776699)
(-179.11475 237.4415 23.780701)
(-185.70094 237.22252 23.7307)
(-180.5368 241.16023 23.342699)
(-179.00458 236.47292 23.7757)
(-184.62946 235.28554 22.481701)
(-180.11465 239.7227 23.6187)
(-179.52061 238.72278 23.786699)
(-180.77057 238.31668 23.779699)
(-181.27856 235.16045 23.7607)
(-187.9424 237.09799 22.501699)
(-175.09052 243.3479 22.488701)
(-197.76283 243.97263 21.729799)
(-183.01266 232.6915 22.7617)
(-178.08299 237.00372 22.508699)
(-178.93457 241.7854 22.933701)
(-177.28665 252.41003 22.358801)
(-177.41153 252.78522 22.358801)
(-189.08261 247.94112 22.358801)
(-171.80948 230.44171 21.745701)
(-179.79343 238.94183 23.786699)
(-187.4424 235.62926 22.4928)
(-182.41154 236.8167 23.765699)
(-176.98167 252.53497 21.7318)
(-186.66147 238.47296 23.738701)
(-180.60689 241.03516 23.6187)
(-179.13773 240.09775 23.1147)
(-189.54378 223.12888 21.744699)
(-180.33914 251.57011 9.8767691)
(-177.12961 252.87805 1.9499999)
(-177.12961 252.87807 2.4547501)
(-178.43486 240.4725 22.9268)
(-198.24643 244.16063 1.9500002)
(-198.24643 244.16063 1.98675)
(-168.44258 231.84779 1.9499987)
(-189.685 223.44121 21.744699)
(-267.27808 408.62909 21.2388)
(-260.08328 391.19113 13.9188)
(-260.08325 391.19113 1.95)
(-260.08255 391.65994 23.503799)
(-297.44183 396.75394 14.9338)
(-297.44183 396.75394 1.9499999)
(-279.79388 403.7854 14.9228)
(-279.79388 403.7854 1.9500009)
(-266.98111 408.75354 21.243799)
(-292.02823 383.56638 16.9538)
(-292.02823 383.56638 1.95)
(-265.6687 388.6604 23.5448)
(-260.13773 391.31628 23.501801)
(-286.89536 420.19098 9.2518101)
(-286.89536 420.19098 1.95)
(-274.77765 425.15982 9.1508102)
(-281.09848 417.62842 10.7318)
(-281.84024 419.62885 10.7318)
(-284.552 416.28494 10.7318)
(-267.12958 409.44086 14.8458)
(-267.12958 409.44086 1.95)
(-259.80185 391.7851 14.8508)
(-259.80185 391.7851 1.95)
(-274.40289 390.81708 17.639799)
(-262.0278 396.47321 23.5658)
(-269.91064 393.34778 23.632799)
(-263.30203 402.41006 21.2258)
(-274.8017 405.47256 21.1238)
(-279.61356 404.22311 17.7068)
(-275.04352 406.06653 17.653799)
(-275.03577 402.34784 18.5298)
(-273.36417 417.97351 9.9028101)
(-287.70782 390.035 17.796801)
(-291.01285 388.37897 17.792801)
(-290.84879 387.41022 17.781799)
(-271.45001 412.87878 12.6328)
(-263.95822 403.37881 21.2278)
(-242.7316 422.50391 5.0498099)
(-242.7316 422.50391 1.9499996)
(-241.39586 419.34811 5.0598102)
(-241.39586 419.34811 1.9499997)
(-285.30151 416.40936 10.7318)
(-285.30151 416.40936 1.95)
(-264.20782 384.87878 13.9198)
(-264.20782 384.87878 1.9500009)
(-278.8096 389.00403 16.9538)
(-281.8176 395.50375 16.924801)
(-268.20016 408.2543 21.2248)
(-259.61447 405.06668 16.2528)
(-279.55203 403.50397 17.705799)
(-294.73859 390.16016 16.9258)
(-259.58264 403.97278 16.288799)
(-273.17676 416.00418 12.6968)
(-270.52795 413.94086 10.7678)
(-266.74634 388.37894 23.5548)
(-269.67587 392.78494 23.6248)
(-269.16888 392.62866 23.6178)
(-267.4888 388.62927 23.5658)
(-244.95757 417.84833 14.9408)
(-246.27065 421.06638 14.9398)
(-237.89581 401.09784 14.9448)
(-257.34888 422.31726 14.8998)
(-296.98154 396.91019 14.9338)
(-296.98154 396.91019 1.9499999)
(-247.18459 397.81708 14.9058)
(-247.18459 397.81708 1.95)
(-273.27081 421.56702 9.1448097)
(-273.27081 421.56702 1.9500004)
(-274.77768 425.15982 1.95)
(-267.54395 409.25415 14.8438)
(-267.54395 409.25415 1.95)
(-238.0827 401.53503 14.9448)
(-238.0827 401.53503 1.9499999)
(-275.46567 414.28522 12.6868)
(-287.27789 388.66037 17.7798)
(-276.0752 404.84818 18.549801)
(-274.94949 415.22284 12.6978)
(-271.64517 416.6604 10.9018)
(-281.21518 412.4729 9.9028101)
(-284.4028 415.12881 9.23981)
(-284.4028 415.12881 1.95)
(-280.16864 404.8786 9.2228003)
(-248.50511 426.50403 14.9388)
(-280.16864 404.8786 1.95)
(-269.16888 392.62866 1.95)
(-248.31772 426.03522 14.9388)
(-248.31769 426.03525 1.95)
(-246.98978 397.3479 14.9058)
(-246.98976 397.34793 1.95)
(-248.50511 426.50403 1.9499991)
(-259.51306 386.81668 13.9418)
(-259.51306 386.81668 1.95)
(-285.93439 417.91055 10.7318)
(-257.34888 422.31726 1.9499991)
(-237.89581 401.09784 1.9500004)
(-257.5285 422.78537 14.8998)
(-257.5285 422.78537 1.9500002)
(-267.62173 388.9404 23.569799)
(63.010769 844.44092 3.4297299)
(63.010769 844.44092 1.9499999)
(53.854084 838.39514 1.9499998)
(115.36214 829.81653 27.4967)
(121.51042 830.19055 16.287701)
(111.42429 831.22156 35.3647)
(110.54885 840.62891 26.057699)
(105.83103 824.66101 12.9937)
(122.75351 831.56659 15.7357)
(108.27622 823.3783 13.3267)
(123.08093 834.16101 15.6677)
(130.12868 885.37885 13.9897)
(130.12872 885.37891 1.9500002)
(105.01009 823.75378 12.8857)
(103.417 824.34705 12.8297)
(103.1589 824.78619 12.8407)
(115.37842 829.81726 27.5007)
(100.91737 830.25354 11.6007)
(111.9949 840.37927 26.560699)
(119.24559 835.09723 26.1047)
(113.25991 833.12933 35.367699)
(99.362427 834.91119 11.0037)
(114.28381 822.62878 14.5367)
(113.54205 822.66058 14.3897)
(116.05722 831.28662 27.7127)
(113.65094 831.59705 26.946699)
(113.35468 830.37866 26.8557)
(114.72927 829.7536 27.293699)
(114.64303 829.78613 27.266701)
(121.83147 838.84698 15.1877)
(115.5884 844.78595 13.6707)
(113.12062 827.25397 26.3787)
(120.13512 826.41113 15.4857)
(118.84607 825.09662 15.3017)
(110.13519 835.56671 35.363701)
(112.27632 827.91156 28.0467)
(109.85449 827.84723 27.0767)
(112.89364 828.00421 28.4657)
(123.01019 829.7854 16.144699)
(120.60464 827.87909 16.2777)
(121.57336 827.06726 16.1667)
(105.65146 831.81696 26.040701)
(116.95595 839.03577 26.051701)
(100.65929 837.25458 11.1387)
(122.33774 835.9408 17.258699)
(113.34618 840.84668 26.0567)
(112.94808 835.3786 35.367699)
(117.82356 837.91077 26.0487)
(144.6675 806.00403 18.4377)
(324.39352 350.19095 4.24402)
(324.39352 350.19095 1.95)
(326.22919 345.75455 4.24402)
(326.22919 345.75455 1.95)
(334.33826 354.31763 4.1940298)
(338.05692 350.65973 3.9300201)
(338.05692 350.65973 1.9499999)
(336.4631 350.00354 4.1930199)
(336.79971 355.3168 3.91803)
(336.79971 355.3168 1.95)
(338.55756 351.09814 3.93102)
(338.55753 351.09818 1.95)
(88.432678 396.87909 11.4938)
(88.432678 396.87909 1.9499991)
(87.971664 396.65988 11.4938)
(87.971664 396.65988 1.9500002)
(162.48727 292.87854 9.7147703)
(162.72133 292.25415 9.7197704)
(162.48727 292.87854 1.9499989)
(148.86273 331.97305 11.4588)
(148.86273 331.97305 1.95)
(136.2925 362.28461 11.6298)
(62.182545 542.91028 5.8618498)
(74.885223 429.59763 11.4838)
(74.885231 429.59763 1.9500003)
(87.729454 480.03519 9.0058298)
(87.706268 480.09799 9.0058298)
(105.76035 433.75403 31.937799)
(106.25317 434.84787 9.0058098)
(137.11275 305.53503 30.7948)
(162.15988 292.03497 9.71877)
(162.15988 292.03497 1.95)
(108.49494 488.59772 5.9138298)
(108.49494 488.59772 1.95)
(56.807278 499.31702 23.194799)
(102.45623 491.50391 8.5468302)
(101.87032 492.47305 8.5448303)
(48.956345 537.87903 19.1238)
(49.29213 537.12885 19.042801)
(147.47893 285.9411 9.7007599)
(147.23709 286.53506 9.6957703)
(147.47893 285.9411 1.9499993)
(139.91713 300.22324 35.373798)
(141.27618 296.94086 35.373798)
(140.81516 298.06656 35.373798)
(143.65135 297.97253 35.373798)
(121.81519 320.75339 11.4838)
(121.81519 320.75339 1.9499998)
(118.83121 402.53455 31.126801)
(142.90891 290.53519 11.4838)
(70.596222 488.75391 38.8438)
(126.90142 334.56674 35.373798)
(162.4406 298.62872 11.7158)
(95.29232 427.3165 36.394798)
(92.659058 434.97305 38.8568)
(92.526131 436.78467 38.853802)
(128.51009 326.56723 30.878799)
(100.29229 423.31641 36.9258)
(99.198387 423.47266 36.923801)
(61.03458 541.50421 26.871799)
(67.557205 513.50391 29.7248)
(97.221313 376.16016 12.3918)
(132.88568 317.37909 35.373798)
(70.635605 486.12933 38.848801)
(160.588 323.1908 11.4588)
(170.00311 301.78455 1.95)
(170.00311 301.78455 11.4588)
(159.7133 298.00433 11.4588)
(135.29265 368.87906 11.7458)
(135.29265 368.87906 1.9500002)
(67.502884 473.72263 35.373798)
(73.05722 505.75388 28.1458)
(73.167038 505.25375 27.9748)
(49.666992 532.59766 28.313801)
(49.971512 531.75427 28.028799)
(75.799301 507.59808 26.871799)
(48.885498 538.06726 8.9978504)
(48.885498 538.06726 1.9499991)
(63.948181 498.40991 29.639799)
(108.5032 405.40964 38.8358)
(100.24491 374.84778 12.4038)
(98.143387 373.94125 12.3958)
(137.16721 305.40988 18.914801)
(82.135345 493.31702 18.994801)
(82.182205 493.19092 18.913799)
(127.08809 351.81729 38.834801)
(130.49565 353.19119 38.816799)
(77.447937 501.34763 35.373798)
(108.51041 488.6911 5.9138298)
(108.51041 488.6911 1.95)
(79.526184 526.65985 7.4198399)
(131.02599 357.40982 38.151798)
(128.62819 362.9415 38.151798)
(145.59662 292.40973 11.4838)
(121.3379 359.97305 38.151798)
(103.22891 409.56671 36.382801)
(103.84621 409.84744 36.3908)
(73.416977 507.22266 27.941799)
(158.8075 303.94052 35.373798)
(92.753548 526.72327 5.8618398)
(92.753548 526.72327 1.9500002)
(104.28389 405.53476 38.854801)
(103.94804 405.94138 38.855801)
(59.667286 531.06702 30.275801)
(142.47121 309.53442 38.151798)
(149.61226 312.53467 38.151798)
(73.784462 490.09818 38.8288)
(112.41705 402.25381 38.151798)
(110.21297 407.65964 38.151798)
(60.831181 503.90985 29.7568)
(95.760445 442.97327 38.151798)
(93.549515 489.0672 8.2878304)
(147.5652 335.12888 8.0377798)
(147.5652 335.12888 1.95)
(141.40134 347.81647 31.105801)
(142.20604 348.12903 11.6108)
(46.760471 537.16016 26.871799)
(135.03455 361.78467 35.373798)
(70.479042 485.47272 38.151798)
(151.56531 321.25333 35.373798)
(136.72949 325.53485 38.151798)
(136.00331 324.69128 38.151798)
(138.37846 324.37943 38.825802)
(136.41766 329.09796 38.827801)
(96.917259 430.50412 36.5298)
(98.190041 425.00424 36.791801)
(58.346008 501.15967 28.007799)
(58.151466 500.9101 27.9918)
(127.4565 338.78461 35.373798)
(141.95572 325.66 38.8078)
(160.53424 324.62903 11.4588)
(160.53424 324.62903 1.9500009)
(156.25342 335.00372 11.4588)
(51.260529 537.19128 28.906799)
(51.690556 537.37921 28.8958)
(158.17392 300.75427 11.4588)
(123.65933 354.37912 38.151798)
(70.096336 507.91003 29.716801)
(70.080948 505.4407 27.9238)
(74.900986 506.90964 28.6598)
(52.25349 537.37915 28.9468)
(52.760075 537.78473 26.871799)
(85.870125 543.37891 7.9158502)
(85.870125 543.37891 1.9499997)
(133.28447 314.90985 30.8318)
(66.135216 472.09787 12.3988)
(66.409554 473.5672 11.7388)
(66.783951 470.40961 12.8348)
(141.21327 327.44049 38.8078)
(147.46336 331.62869 35.373798)
(66.034019 520.00372 27.9828)
(127.86166 325.62888 11.4838)
(130.25311 323.75366 35.373798)
(119.85439 402.16046 18.337799)
(119.68258 402.56705 18.337799)
(134.98718 361.03442 35.373798)
(142.52635 297.28448 35.373798)
(66.487259 456.9729 12.4268)
(67.384964 454.81659 12.4108)
(54.745079 524.4408 29.7738)
(125.62013 331.03543 10.8688)
(125.62013 331.03543 1.9500005)
(126.45664 329.03503 10.8628)
(72.174194 524.28491 6.4608402)
(98.026703 437.06677 38.151798)
(105.2682 411.59753 36.458801)
(75.72123 507.75391 26.871799)
(60.417324 495.59805 35.373798)
(100.60411 422.53503 36.9258)
(99.096573 422.12918 36.923801)
(68.706268 451.47299 12.4118)
(134.04886 314.59802 35.373798)
(77.0103 505.59796 8.95784)
(59.713196 527.4729 29.271799)
(61.417179 531.75385 30.275801)
(84.42482 434.28506 35.373798)
(97.471626 433.12891 38.840801)
(93.854782 431.56693 38.858799)
(94.706123 437.75409 38.8438)
(58.220921 510.6907 29.764799)
(100.47118 394.37946 31.142799)
(125.18243 356.59802 38.8358)
(128.45636 358.25409 38.817799)
(140.26007 299.47299 35.373798)
(67.096222 517.59796 28.517799)
(65.284546 516.62933 28.517799)
(61.487457 497.44119 29.635799)
(60.588585 499.75427 28.1028)
(65.159554 522.25421 29.7318)
(132.87859 367.66003 35.373798)
(133.90886 310.72308 12.8328)
(132.73718 310.03506 12.8058)
(117.33142 408.12842 11.6438)
(133.40114 309.34845 12.7828)
(119.34666 401.28506 31.126801)
(127.21325 337.94031 35.373798)
(69.901405 484.62906 38.151798)
(72.542282 484.06702 38.844799)
(73.010132 525.50378 7.9158401)
(121.22124 396.72354 31.126801)
(103.39365 409.16013 38.853802)
(106.83868 410.34805 38.8358)
(54.987251 520.40991 29.1758)
(56.854061 515.87872 29.1868)
(99.057671 450.00403 35.373798)