/*--------------------------------*- C++ -*----------------------------------*\
  =========                 |
  \\      /  F ield         | OpenFOAM: The Open Source CFD Toolbox
   \\    /   O peration     | Website:  https://openfoam.org
    \\  /    A nd           | Version:  7
     \\/     M anipulation  |
\*---------------------------------------------------------------------------*/
FoamFile
{
    version     2.0;
    format      ascii;
    class       extendedFeatureEdgeMesh;
    location    "constant/extendedFeatureEdgeMesh";
    object      trees.extendedFeatureEdgeMesh;
}
// * * * * * * * * * * * * * * * * * * * * * * * * * * * * * * * * * * * * * //

// points

224
(
(8.7139645 232.31406 5.8999996)
(8.7139645 232.31406 21.9)
(8.7139645 242.31406 21.9)
(8.7139645 242.31406 5.8999996)
(18.713964 242.31406 21.9)
(18.713964 242.31406 5.8999996)
(18.713964 232.31406 21.9)
(18.713964 232.31406 5.8999996)
(12.713964 236.31406 1.9000001)
(12.713964 236.31406 5.9000001)
(12.713964 238.31406 5.9000001)
(12.713964 238.31406 1.9000001)
(14.713964 238.31406 5.9000001)
(14.713964 238.31406 1.9000001)
(14.713964 236.31406 5.9000001)
(14.713964 236.31406 1.9000001)
(-6.2860374 239.81406 5.8999996)
(-6.2860374 239.81406 21.9)
(-6.2860374 249.81406 21.9)
(-6.2860374 249.81406 5.8999996)
(3.7139626 249.81406 21.9)
(3.7139626 249.81406 5.8999996)
(3.7139626 239.81406 21.9)
(3.7139626 239.81406 5.8999996)
(-2.2860374 243.81406 1.9000001)
(-2.2860374 243.81406 5.9000001)
(-2.2860374 245.81406 5.9000001)
(-2.2860374 245.81406 1.9000001)
(-0.28603745 245.81406 5.9000001)
(-0.28603745 245.81406 1.9000001)
(-0.28603745 243.81406 5.9000001)
(-0.28603745 243.81406 1.9000001)
(-21.286037 247.31406 5.8999996)
(-21.286037 247.31406 21.9)
(-21.286037 257.31406 21.9)
(-21.286037 257.31406 5.8999996)
(-11.286037 257.31406 21.9)
(-11.286037 257.31406 5.8999996)
(-11.286037 247.31406 21.9)
(-11.286037 247.31406 5.8999996)
(-17.286037 251.31406 1.9000001)
(-17.286037 251.31406 5.9000001)
(-17.286037 253.31406 5.9000001)
(-17.286037 253.31406 1.9000001)
(-15.286037 253.31406 5.9000001)
(-15.286037 253.31406 1.9000001)
(-15.286037 251.31406 5.9000001)
(-15.286037 251.31406 1.9000001)
(-36.286037 254.81406 5.8999996)
(-36.286037 254.81406 21.9)
(-36.286037 264.81406 21.9)
(-36.286037 264.81406 5.8999996)
(-26.286037 264.81406 21.9)
(-26.286037 264.81406 5.8999996)
(-26.286037 254.81406 21.9)
(-26.286037 254.81406 5.8999996)
(-32.286037 258.81406 1.9000001)
(-32.286037 258.81406 5.9000001)
(-32.286037 260.81406 5.9000001)
(-32.286037 260.81406 1.9000001)
(-30.286037 260.81406 5.9000001)
(-30.286037 260.81406 1.9000001)
(-30.286037 258.81406 5.9000001)
(-30.286037 258.81406 1.9000001)
(-66.286041 269.81406 5.8999996)
(-66.286041 269.81406 21.9)
(-66.286041 279.81406 21.9)
(-66.286041 279.81406 5.8999996)
(-56.286037 279.81406 21.9)
(-56.286037 279.81406 5.8999996)
(-56.286037 269.81406 21.9)
(-56.286037 269.81406 5.8999996)
(-62.286037 273.81406 1.9000001)
(-62.286037 273.81406 5.9000001)
(-62.286037 275.81406 5.9000001)
(-62.286037 275.81406 1.9000001)
(-60.286037 275.81406 5.9000001)
(-60.286037 275.81406 1.9000001)
(-60.286037 273.81406 5.9000001)
(-60.286037 273.81406 1.9000001)
(-51.286037 262.31406 5.8999996)
(-51.286037 262.31406 21.9)
(-51.286037 272.31406 21.9)
(-51.286037 272.31406 5.8999996)
(-41.286037 272.31406 21.9)
(-41.286037 272.31406 5.8999996)
(-41.286037 262.31406 21.9)
(-41.286037 262.31406 5.8999996)
(-47.286037 266.31406 1.9000001)
(-47.286037 266.31406 5.9000001)
(-47.286037 268.31406 5.9000001)
(-47.286037 268.31406 1.9000001)
(-45.286037 268.31406 5.9000001)
(-45.286037 268.31406 1.9000001)
(-45.286037 266.31406 5.9000001)
(-45.286037 266.31406 1.9000001)
(-81.286041 277.31406 5.8999996)
(-81.286041 277.31406 21.9)
(-81.286041 287.31406 21.9)
(-81.286041 287.31406 5.8999996)
(-71.286041 287.31406 21.9)
(-71.286041 287.31406 5.8999996)
(-71.286041 277.31406 21.9)
(-71.286041 277.31406 5.8999996)
(-77.286041 281.31406 1.9000001)
(-77.286041 281.31406 5.9000001)
(-77.286041 283.31406 5.9000001)
(-77.286041 283.31406 1.9000001)
(-75.286041 283.31406 5.9000001)
(-75.286041 283.31406 1.9000001)
(-75.286041 281.31406 5.9000001)
(-75.286041 281.31406 1.9000001)
(34.324902 296.58301 5.8999996)
(34.324902 296.58301 21.9)
(34.324902 306.58301 21.9)
(34.324902 306.58301 5.8999996)
(44.324902 306.58301 21.9)
(44.324902 306.58301 5.8999996)
(44.324902 296.58301 21.9)
(44.324902 296.58301 5.8999996)
(38.324902 300.58301 1.9000001)
(38.324902 300.58301 5.9000001)
(38.324902 302.58301 5.9000001)
(38.324902 302.58301 1.9000001)
(40.324902 302.58301 5.9000001)
(40.324902 302.58301 1.9000001)
(40.324902 300.58301 5.9000001)
(40.324902 300.58301 1.9000001)
(19.324902 304.08301 5.8999996)
(19.324902 304.08301 21.9)
(19.324902 314.08301 21.9)
(19.324902 314.08301 5.8999996)
(29.324902 314.08301 21.9)
(29.324902 314.08301 5.8999996)
(29.324902 304.08301 21.9)
(29.324902 304.08301 5.8999996)
(23.324902 308.08301 1.9000001)
(23.324902 308.08301 5.9000001)
(23.324902 310.08301 5.9000001)
(23.324902 310.08301 1.9000001)
(25.324902 310.08301 5.9000001)
(25.324902 310.08301 1.9000001)
(25.324902 308.08301 5.9000001)
(25.324902 308.08301 1.9000001)
(4.3249016 311.58301 5.8999996)
(4.3249016 311.58301 21.9)
(4.3249016 321.58301 21.9)
(4.3249016 321.58301 5.8999996)
(14.324902 321.58301 21.9)
(14.324902 321.58301 5.8999996)
(14.324902 311.58301 21.9)
(14.324902 311.58301 5.8999996)
(8.3249016 315.58301 1.9000001)
(8.3249016 315.58301 5.9000001)
(8.3249016 317.58301 5.9000001)
(8.3249016 317.58301 1.9000001)
(10.324902 317.58301 5.9000001)
(10.324902 317.58301 1.9000001)
(10.324902 315.58301 5.9000001)
(10.324902 315.58301 1.9000001)
(-10.675098 319.08301 5.8999996)
(-10.675098 319.08301 21.9)
(-10.675098 329.08301 21.9)
(-10.675098 329.08301 5.8999996)
(-0.67509842 329.08301 21.9)
(-0.67509842 329.08301 5.8999996)
(-0.67509842 319.08301 21.9)
(-0.67509842 319.08301 5.8999996)
(-6.6750984 323.08301 1.9000001)
(-6.6750984 323.08301 5.9000001)
(-6.6750984 325.08301 5.9000001)
(-6.6750984 325.08301 1.9000001)
(-4.6750984 325.08301 5.9000001)
(-4.6750984 325.08301 1.9000001)
(-4.6750984 323.08301 5.9000001)
(-4.6750984 323.08301 1.9000001)
(-40.675098 334.08301 5.8999996)
(-40.675098 334.08301 21.9)
(-40.675098 344.08301 21.9)
(-40.675098 344.08301 5.8999996)
(-30.675098 344.08301 21.9)
(-30.675098 344.08301 5.8999996)
(-30.675098 334.08301 21.9)
(-30.675098 334.08301 5.8999996)
(-36.675098 338.08301 1.9000001)
(-36.675098 338.08301 5.9000001)
(-36.675098 340.08301 5.9000001)
(-36.675098 340.08301 1.9000001)
(-34.675098 340.08301 5.9000001)
(-34.675098 340.08301 1.9000001)
(-34.675098 338.08301 5.9000001)
(-34.675098 338.08301 1.9000001)
(-25.675098 326.58301 5.8999996)
(-25.675098 326.58301 21.9)
(-25.675098 336.58301 21.9)
(-25.675098 336.58301 5.8999996)
(-15.675098 336.58301 21.9)
(-15.675098 336.58301 5.8999996)
(-15.675098 326.58301 21.9)
(-15.675098 326.58301 5.8999996)
(-21.675098 330.58301 1.9000001)
(-21.675098 330.58301 5.9000001)
(-21.675098 332.58301 5.9000001)
(-21.675098 332.58301 1.9000001)
(-19.675098 332.58301 5.9000001)
(-19.675098 332.58301 1.9000001)
(-19.675098 330.58301 5.9000001)
(-19.675098 330.58301 1.9000001)
(-55.675098 341.58301 5.8999996)
(-55.675098 341.58301 21.9)
(-55.675098 351.58301 21.9)
(-55.675098 351.58301 5.8999996)
(-45.675098 351.58301 21.9)
(-45.675098 351.58301 5.8999996)
(-45.675098 341.58301 21.9)
(-45.675098 341.58301 5.8999996)
(-51.675098 345.58301 1.9000001)
(-51.675098 345.58301 5.9000001)
(-51.675098 347.58301 5.9000001)
(-51.675098 347.58301 1.9000001)
(-49.675098 347.58301 5.9000001)
(-49.675098 347.58301 1.9000001)
(-49.675098 345.58301 5.9000001)
(-49.675098 345.58301 1.9000001)
)

// edges

420
(
(0 1)
(1 2)
(2 3)
(3 0)
(2 4)
(4 5)
(5 3)
(4 6)
(6 7)
(7 5)
(6 1)
(0 7)
(8 9)
(9 10)
(10 11)
(11 8)
(10 12)
(12 13)
(13 11)
(12 14)
(14 15)
(15 13)
(14 9)
(8 15)
(16 17)
(17 18)
(18 19)
(19 16)
(18 20)
(20 21)
(21 19)
(20 22)
(22 23)
(23 21)
(22 17)
(16 23)
(24 25)
(25 26)
(26 27)
(27 24)
(26 28)
(28 29)
(29 27)
(28 30)
(30 31)
(31 29)
(30 25)
(24 31)
(32 33)
(33 34)
(34 35)
(35 32)
(34 36)
(36 37)
(37 35)
(36 38)
(38 39)
(39 37)
(38 33)
(32 39)
(40 41)
(41 42)
(42 43)
(43 40)
(42 44)
(44 45)
(45 43)
(44 46)
(46 47)
(47 45)
(46 41)
(40 47)
(48 49)
(49 50)
(50 51)
(51 48)
(50 52)
(52 53)
(53 51)
(52 54)
(54 55)
(55 53)
(54 49)
(48 55)
(56 57)
(57 58)
(58 59)
(59 56)
(58 60)
(60 61)
(61 59)
(60 62)
(62 63)
(63 61)
(62 57)
(56 63)
(64 65)
(65 66)
(66 67)
(67 64)
(66 68)
(68 69)
(69 67)
(68 70)
(70 71)
(71 69)
(70 65)
(64 71)
(72 73)
(73 74)
(74 75)
(75 72)
(74 76)
(76 77)
(77 75)
(76 78)
(78 79)
(79 77)
(78 73)
(72 79)
(80 81)
(81 82)
(82 83)
(83 80)
(82 84)
(84 85)
(85 83)
(84 86)
(86 87)
(87 85)
(86 81)
(80 87)
(88 89)
(89 90)
(90 91)
(91 88)
(90 92)
(92 93)
(93 91)
(92 94)
(94 95)
(95 93)
(94 89)
(88 95)
(96 97)
(97 98)
(98 99)
(99 96)
(98 100)
(100 101)
(101 99)
(100 102)
(102 103)
(103 101)
(102 97)
(96 103)
(104 105)
(105 106)
(106 107)
(107 104)
(106 108)
(108 109)
(109 107)
(108 110)
(110 111)
(111 109)
(110 105)
(104 111)
(114 112)
(112 113)
(113 114)
(114 115)
(115 112)
(116 115)
(114 116)
(116 117)
(117 115)
(118 117)
(116 118)
(118 119)
(119 117)
(113 119)
(118 113)
(112 119)
(119 115)
(113 116)
(122 120)
(120 121)
(121 122)
(122 123)
(123 120)
(124 123)
(122 124)
(124 125)
(125 123)
(126 125)
(124 126)
(126 127)
(127 125)
(121 127)
(126 121)
(120 127)
(127 123)
(121 124)
(130 128)
(128 129)
(129 130)
(130 131)
(131 128)
(132 131)
(130 132)
(132 133)
(133 131)
(134 133)
(132 134)
(134 135)
(135 133)
(129 135)
(134 129)
(128 135)
(135 131)
(129 132)
(138 136)
(136 137)
(137 138)
(138 139)
(139 136)
(140 139)
(138 140)
(140 141)
(141 139)
(142 141)
(140 142)
(142 143)
(143 141)
(137 143)
(142 137)
(136 143)
(143 139)
(137 140)
(146 144)
(144 145)
(145 146)
(146 147)
(147 144)
(148 147)
(146 148)
(148 149)
(149 147)
(150 149)
(148 150)
(150 151)
(151 149)
(145 151)
(150 145)
(144 151)
(151 147)
(145 148)
(154 152)
(152 153)
(153 154)
(154 155)
(155 152)
(156 155)
(154 156)
(156 157)
(157 155)
(158 157)
(156 158)
(158 159)
(159 157)
(153 159)
(158 153)
(152 159)
(159 155)
(153 156)
(162 160)
(160 161)
(161 162)
(162 163)
(163 160)
(164 163)
(162 164)
(164 165)
(165 163)
(166 165)
(164 166)
(166 167)
(167 165)
(161 167)
(166 161)
(160 167)
(167 163)
(161 164)
(170 168)
(168 169)
(169 170)
(170 171)
(171 168)
(172 171)
(170 172)
(172 173)
(173 171)
(174 173)
(172 174)
(174 175)
(175 173)
(169 175)
(174 169)
(168 175)
(175 171)
(169 172)
(178 176)
(176 177)
(177 178)
(178 179)
(179 176)
(180 179)
(178 180)
(180 181)
(181 179)
(182 181)
(180 182)
(182 183)
(183 181)
(177 183)
(182 177)
(176 183)
(183 179)
(177 180)
(186 184)
(184 185)
(185 186)
(186 187)
(187 184)
(188 187)
(186 188)
(188 189)
(189 187)
(190 189)
(188 190)
(190 191)
(191 189)
(185 191)
(190 185)
(184 191)
(191 187)
(185 188)
(194 192)
(192 193)
(193 194)
(194 195)
(195 192)
(196 195)
(194 196)
(196 197)
(197 195)
(198 197)
(196 198)
(198 199)
(199 197)
(193 199)
(198 193)
(192 199)
(199 195)
(193 196)
(202 200)
(200 201)
(201 202)
(202 203)
(203 200)
(204 203)
(202 204)
(204 205)
(205 203)
(206 205)
(204 206)
(206 207)
(207 205)
(201 207)
(206 201)
(200 207)
(207 203)
(201 204)
(210 208)
(208 209)
(209 210)
(210 211)
(211 208)
(212 211)
(210 212)
(212 213)
(213 211)
(214 213)
(212 214)
(214 215)
(215 213)
(209 215)
(214 209)
(208 215)
(215 211)
(209 212)
(218 216)
(216 217)
(217 218)
(218 219)
(219 216)
(220 219)
(218 220)
(220 221)
(221 219)
(222 221)
(220 222)
(222 223)
(223 221)
(217 223)
(222 217)
(216 223)
(223 219)
(217 220)
)

// concaveStart mixedStart nonFeatureStart
112 112 224
// internalStart flatStart openStart multipleStart
168 168 168 168
// normals

672
(
(-1 0 0)
(-1 0 0)
(-1 0 0)
(-1 0 0)
(-1 0 0)
(-1 0 0)
(0 -1 0)
(0 -1 0)
(0 -1 0)
(0 0 1)
(0 0 1)
(0 0 1)
(0 1 0)
(0 1 0)
(0 1 0)
(0 0 -1)
(0 0 -1)
(0 0 -1)
(0 1 0)
(0 1 0)
(0 1 0)
(1 0 -0)
(1 0 -0)
(1 0 -0)
(0 0 -1)
(0 0 -1)
(0 0 -1)
(1 0 0)
(1 0 0)
(1 0 0)
(0 0 1)
(0 0 1)
(0 0 1)
(0 -1 0)
(0 -1 0)
(0 -1 0)
(-1 0 0)
(-1 0 0)
(-1 0 0)
(-1 0 0)
(-1 0 0)
(-1 0 0)
(0 -1 0)
(0 -1 0)
(0 -1 0)
(0 0 1)
(0 0 1)
(0 0 1)
(0 1 0)
(0 1 0)
(0 1 0)
(0 0 -1)
(0 0 -1)
(0 0 -1)
(0 1 0)
(0 1 0)
(0 1 0)
(1 0 -0)
(1 0 -0)
(1 0 -0)
(0 0 -1)
(0 0 -1)
(0 0 -1)
(1 0 0)
(1 0 0)
(1 0 0)
(0 0 1)
(0 0 1)
(0 0 1)
(0 -1 0)
(0 -1 0)
(0 -1 0)
(-1 0 0)
(-1 0 0)
(-1 0 0)
(-1 0 0)
(-1 0 0)
(-1 0 0)
(0 -1 0)
(0 -1 0)
(0 -1 0)
(0 0 1)
(0 0 1)
(0 0 1)
(0 1 0)
(0 1 0)
(0 1 0)
(0 0 -1)
(0 0 -1)
(0 0 -1)
(0 1 0)
(0 1 0)
(0 1 0)
(1 0 -0)
(1 0 -0)
(1 0 -0)
(0 0 -1)
(0 0 -1)
(0 0 -1)
(1 0 0)
(1 0 0)
(1 0 0)
(0 0 1)
(0 0 1)
(0 0 1)
(0 -1 0)
(0 -1 0)
(0 -1 0)
(-1 0 0)
(-1 0 0)
(-1 0 0)
(-1 0 0)
(-1 0 0)
(-1 0 0)
(0 -1 0)
(0 -1 0)
(0 -1 0)
(0 0 1)
(0 0 1)
(0 0 1)
(0 1 0)
(0 1 0)
(0 1 0)
(0 0 -1)
(0 0 -1)
(0 0 -1)
(0 1 0)
(0 1 0)
(0 1 0)
(1 0 -0)
(1 0 -0)
(1 0 -0)
(0 0 -1)
(0 0 -1)
(0 0 -1)
(1 0 0)
(1 0 0)
(1 0 0)
(0 0 1)
(0 0 1)
(0 0 1)
(0 -1 0)
(0 -1 0)
(0 -1 0)
(-1 0 0)
(-1 0 0)
(-1 0 0)
(-1 0 0)
(-1 0 0)
(-1 0 0)
(0 -1 0)
(0 -1 0)
(0 -1 0)
(0 0 1)
(0 0 1)
(0 0 1)
(0 1 0)
(0 1 0)
(0 1 0)
(0 0 -1)
(0 0 -1)
(0 0 -1)
(0 1 0)
(0 1 0)
(0 1 0)
(1 0 -0)
(1 0 -0)
(1 0 -0)
(0 0 -1)
(0 0 -1)
(0 0 -1)
(1 0 0)
(1 0 0)
(1 0 0)
(0 0 1)
(0 0 1)
(0 0 1)
(0 -1 0)
(0 -1 0)
(0 -1 0)
(-1 0 0)
(-1 0 0)
(-1 0 0)
(-1 0 0)
(-1 0 0)
(-1 0 0)
(0 -1 0)
(0 -1 0)
(0 -1 0)
(0 0 1)
(0 0 1)
(0 0 1)
(0 1 0)
(0 1 0)
(0 1 0)
(0 0 -1)
(0 0 -1)
(0 0 -1)
(0 1 0)
(0 1 0)
(0 1 0)
(1 0 -0)
(1 0 -0)
(1 0 -0)
(0 0 -1)
(0 0 -1)
(0 0 -1)
(1 0 0)
(1 0 0)
(1 0 0)
(0 0 1)
(0 0 1)
(0 0 1)
(0 -1 0)
(0 -1 0)
(0 -1 0)
(-1 0 0)
(-1 0 0)
(-1 0 0)
(-1 0 0)
(-1 0 0)
(-1 0 0)
(0 -1 0)
(0 -1 0)
(0 -1 0)
(0 0 1)
(0 0 1)
(0 0 1)
(0 1 0)
(0 1 0)
(0 1 0)
(0 0 -1)
(0 0 -1)
(0 0 -1)
(0 1 0)
(0 1 0)
(0 1 0)
(1 0 -0)
(1 0 -0)
(1 0 -0)
(0 0 -1)
(0 0 -1)
(0 0 -1)
(1 0 0)
(1 0 0)
(1 0 0)
(0 0 1)
(0 0 1)
(0 0 1)
(0 -1 0)
(0 -1 0)
(0 -1 0)
(-1 0 0)
(-1 0 0)
(-1 0 0)
(-1 0 0)
(-1 0 0)
(-1 0 0)
(0 -1 0)
(0 -1 0)
(0 -1 0)
(0 0 1)
(0 0 1)
(0 0 1)
(0 1 0)
(0 1 0)
(0 1 0)
(0 0 -1)
(0 0 -1)
(0 0 -1)
(0 1 0)
(0 1 0)
(0 1 0)
(1 0 -0)
(1 0 -0)
(1 0 -0)
(0 0 -1)
(0 0 -1)
(0 0 -1)
(1 0 0)
(1 0 0)
(1 0 0)
(0 0 1)
(0 0 1)
(0 0 1)
(0 -1 0)
(0 -1 0)
(0 -1 0)
(-1 0 0)
(-1 0 0)
(-1 0 0)
(-1 0 0)
(-1 0 0)
(-1 0 0)
(0 -1 0)
(0 -1 0)
(0 -1 0)
(0 0 1)
(0 0 1)
(0 0 1)
(0 1 0)
(0 1 0)
(0 1 0)
(0 0 -1)
(0 0 -1)
(0 0 -1)
(0 1 0)
(0 1 0)
(0 1 0)
(1 0 -0)
(1 0 -0)
(1 0 -0)
(0 0 -1)
(0 0 -1)
(0 0 -1)
(1 0 0)
(1 0 0)
(1 0 0)
(0 0 1)
(0 0 1)
(0 0 1)
(0 -1 0)
(0 -1 0)
(0 -1 0)
(-1 0 0)
(-1 0 0)
(-1 0 0)
(-1 0 0)
(-1 0 0)
(-1 0 0)
(0 -1 0)
(0 -1 0)
(0 -1 0)
(0 0 1)
(0 0 1)
(0 0 1)
(0 1 0)
(0 1 0)
(0 1 0)
(0 0 -1)
(0 0 -1)
(0 0 -1)
(0 1 0)
(0 1 0)
(0 1 0)
(1 0 -0)
(1 0 -0)
(1 0 -0)
(0 0 -1)
(0 0 -1)
(0 0 -1)
(1 0 0)
(1 0 0)
(1 0 0)
(0 0 1)
(0 0 1)
(0 0 1)
(0 -1 0)
(0 -1 0)
(0 -1 0)
(-1 0 0)
(-1 0 0)
(-1 0 0)
(-1 0 0)
(-1 0 0)
(-1 0 0)
(0 -1 0)
(0 -1 0)
(0 -1 0)
(0 0 1)
(0 0 1)
(0 0 1)
(0 1 0)
(0 1 0)
(0 1 0)
(0 0 -1)
(0 0 -1)
(0 0 -1)
(0 1 0)
(0 1 0)
(0 1 0)
(1 0 -0)
(1 0 -0)
(1 0 -0)
(0 0 -1)
(0 0 -1)
(0 0 -1)
(1 0 0)
(1 0 0)
(1 0 0)
(0 0 1)
(0 0 1)
(0 0 1)
(0 -1 0)
(0 -1 0)
(0 -1 0)
(-1 0 0)
(-1 0 0)
(-1 0 0)
(-1 0 0)
(-1 0 0)
(-1 0 0)
(0 -1 0)
(0 -1 0)
(0 -1 0)
(0 0 1)
(0 0 1)
(0 0 1)
(0 1 0)
(0 1 0)
(0 1 0)
(0 0 -1)
(0 0 -1)
(0 0 -1)
(0 1 0)
(0 1 0)
(0 1 0)
(1 0 -0)
(1 0 -0)
(1 0 -0)
(0 0 -1)
(0 0 -1)
(0 0 -1)
(1 0 0)
(1 0 0)
(1 0 0)
(0 0 1)
(0 0 1)
(0 0 1)
(0 -1 0)
(0 -1 0)
(0 -1 0)
(-1 0 0)
(-1 0 0)
(-1 0 0)
(-1 0 0)
(-1 0 0)
(-1 0 0)
(0 -1 0)
(0 -1 0)
(0 -1 0)
(0 0 1)
(0 0 1)
(0 0 1)
(0 1 0)
(0 1 0)
(0 1 0)
(0 0 -1)
(0 0 -1)
(0 0 -1)
(0 1 0)
(0 1 0)
(0 1 0)
(1 0 -0)
(1 0 -0)
(1 0 -0)
(0 0 -1)
(0 0 -1)
(0 0 -1)
(1 0 0)
(1 0 0)
(1 0 0)
(0 0 1)
(0 0 1)
(0 0 1)
(0 -1 0)
(0 -1 0)
(0 -1 0)
(-1 0 0)
(-1 0 0)
(-1 0 0)
(-1 0 0)
(-1 0 0)
(-1 0 0)
(0 -1 0)
(0 -1 0)
(0 -1 0)
(0 0 1)
(0 0 1)
(0 0 1)
(0 1 0)
(0 1 0)
(0 1 0)
(0 0 -1)
(0 0 -1)
(0 0 -1)
(0 1 0)
(0 1 0)
(0 1 0)
(1 0 -0)
(1 0 -0)
(1 0 -0)
(0 0 -1)
(0 0 -1)
(0 0 -1)
(1 0 0)
(1 0 0)
(1 0 0)
(0 0 1)
(0 0 1)
(0 0 1)
(0 -1 0)
(0 -1 0)
(0 -1 0)
(-1 0 0)
(0 -1 0)
(0 0 1)
(-1 0 0)
(0 1 0)
(0 0 -1)
(0 1 0)
(1 0 -0)
(0 0 -1)
(0 0 1)
(1 0 0)
(0 -1 0)
(-1 0 0)
(0 -1 0)
(0 0 1)
(-1 0 0)
(0 1 0)
(0 0 -1)
(0 1 0)
(1 0 -0)
(0 0 -1)
(0 0 1)
(1 0 0)
(0 -1 0)
(-1 0 0)
(0 -1 0)
(0 0 1)
(-1 0 0)
(0 1 0)
(0 0 -1)
(0 1 0)
(1 0 -0)
(0 0 -1)
(0 0 1)
(1 0 0)
(0 -1 0)
(-1 0 0)
(0 -1 0)
(0 0 1)
(-1 0 0)
(0 1 0)
(0 0 -1)
(0 1 0)
(1 0 -0)
(0 0 -1)
(0 0 1)
(1 0 0)
(0 -1 0)
(-1 0 0)
(0 -1 0)
(0 0 1)
(-1 0 0)
(0 1 0)
(0 0 -1)
(0 1 0)
(1 0 -0)
(0 0 -1)
(0 0 1)
(1 0 0)
(0 -1 0)
(-1 0 0)
(0 -1 0)
(0 0 1)
(-1 0 0)
(0 1 0)
(0 0 -1)
(0 1 0)
(1 0 -0)
(0 0 -1)
(0 0 1)
(1 0 0)
(0 -1 0)
(-1 0 0)
(0 -1 0)
(0 0 1)
(-1 0 0)
(0 1 0)
(0 0 -1)
(0 1 0)
(1 0 -0)
(0 0 -1)
(0 0 1)
(1 0 0)
(0 -1 0)
(-1 0 0)
(0 -1 0)
(0 0 1)
(-1 0 0)
(0 1 0)
(0 0 -1)
(0 1 0)
(1 0 -0)
(0 0 -1)
(0 0 1)
(1 0 0)
(0 -1 0)
(-1 0 0)
(0 -1 0)
(0 0 1)
(-1 0 0)
(0 1 0)
(0 0 -1)
(0 1 0)
(1 0 -0)
(0 0 -1)
(0 0 1)
(1 0 0)
(0 -1 0)
(-1 0 0)
(0 -1 0)
(0 0 1)
(-1 0 0)
(0 1 0)
(0 0 -1)
(0 1 0)
(1 0 -0)
(0 0 -1)
(0 0 1)
(1 0 0)
(0 -1 0)
(-1 0 0)
(0 -1 0)
(0 0 1)
(-1 0 0)
(0 1 0)
(0 0 -1)
(0 1 0)
(1 0 -0)
(0 0 -1)
(0 0 1)
(1 0 0)
(0 -1 0)
(-1 0 0)
(0 -1 0)
(0 0 1)
(-1 0 0)
(0 1 0)
(0 0 -1)
(0 1 0)
(1 0 -0)
(0 0 -1)
(0 0 1)
(1 0 0)
(0 -1 0)
(-1 0 0)
(0 -1 0)
(0 0 1)
(-1 0 0)
(0 1 0)
(0 0 -1)
(0 1 0)
(1 0 -0)
(0 0 -1)
(0 0 1)
(1 0 0)
(0 -1 0)
(-1 0 0)
(0 -1 0)
(0 0 1)
(-1 0 0)
(0 1 0)
(0 0 -1)
(0 1 0)
(1 0 -0)
(0 0 -1)
(0 0 1)
(1 0 0)
(0 -1 0)
)

// normal volume types

672
(
0
0
0
0
0
0
0
0
0
0
0
0
0
0
0
0
0
0
0
0
0
0
0
0
0
0
0
0
0
0
0
0
0
0
0
0
0
0
0
0
0
0
0
0
0
0
0
0
0
0
0
0
0
0
0
0
0
0
0
0
0
0
0
0
0
0
0
0
0
0
0
0
0
0
0
0
0
0
0
0
0
0
0
0
0
0
0
0
0
0
0
0
0
0
0
0
0
0
0
0
0
0
0
0
0
0
0
0
0
0
0
0
0
0
0
0
0
0
0
0
0
0
0
0
0
0
0
0
0
0
0
0
0
0
0
0
0
0
0
0
0
0
0
0
0
0
0
0
0
0
0
0
0
0
0
0
0
0
0
0
0
0
0
0
0
0
0
0
0
0
0
0
0
0
0
0
0
0
0
0
0
0
0
0
0
0
0
0
0
0
0
0
0
0
0
0
0
0
0
0
0
0
0
0
0
0
0
0
0
0
0
0
0
0
0
0
0
0
0
0
0
0
0
0
0
0
0
0
0
0
0
0
0
0
0
0
0
0
0
0
0
0
0
0
0
0
0
0
0
0
0
0
0
0
0
0
0
0
0
0
0
0
0
0
0
0
0
0
0
0
0
0
0
0
0
0
0
0
0
0
0
0
0
0
0
0
0
0
0
0
0
0
0
0
0
0
0
0
0
0
0
0
0
0
0
0
0
0
0
0
0
0
0
0
0
0
0
0
0
0
0
0
0
0
0
0
0
0
0
0
0
0
0
0
0
0
0
0
0
0
0
0
0
0
0
0
0
0
0
0
0
0
0
0
0
0
0
0
0
0
0
0
0
0
0
0
0
0
0
0
0
0
0
0
0
0
0
0
0
0
0
0
0
0
0
0
0
0
0
0
0
0
0
0
0
0
0
0
0
0
0
0
0
0
0
0
0
0
0
0
0
0
0
0
0
0
0
0
0
0
0
0
0
0
0
0
0
0
0
0
0
0
0
0
0
0
0
0
0
0
0
0
0
0
0
0
0
0
0
0
0
0
0
0
0
0
0
0
0
0
0
0
0
0
0
0
0
0
0
0
0
0
0
0
0
0
0
0
0
0
0
0
0
0
0
0
0
0
0
0
0
0
0
0
0
0
0
0
0
0
0
0
0
0
0
0
0
0
0
0
0
0
0
0
0
0
0
0
0
0
0
0
0
0
0
0
0
0
0
0
0
0
0
0
0
0
0
0
0
0
0
0
0
0
0
0
0
0
0
0
0
0
0
0
0
0
0
0
0
0
0
0
0
0
0
0
0
0
0
0
0
0
0
0
0
0
0
0
0
0
0
0
0
0
0
0
0
0
0
0
0
0
0
0
0
0
0
0
0
0
0
0
0
0
0
0
0
0
0
0
0
0
0
0
0
0
0
0
0
0
0
0
0
0
0
0
0
0
0
0
0
0
0
0
0
0
0
0
0
0
0
0
0
0
0
0
0
0
0
0
0
0
0
0
0
0
0
0
0
0
0
0
0
0
0
0
0
0
0
0
0
0
)

// normalDirections

420
(
2(1 -1)
2(1 -1)
2(1 -1)
2(1 -1)
2(1 -1)
2(1 -1)
2(1 -1)
2(1 -1)
2(1 -1)
2(1 -1)
2(1 -1)
2(1 -1)
2(1 -1)
2(1 -1)
2(1 -1)
2(1 -1)
2(1 -1)
2(1 -1)
2(1 -1)
2(1 -1)
2(1 -1)
2(1 -1)
2(1 -1)
2(1 -1)
2(1 -1)
2(1 -1)
2(1 -1)
2(1 -1)
2(1 -1)
2(1 -1)
2(1 -1)
2(1 -1)
2(1 -1)
2(1 -1)
2(1 -1)
2(1 -1)
2(1 -1)
2(1 -1)
2(1 -1)
2(1 -1)
2(1 -1)
2(1 -1)
2(1 -1)
2(1 -1)
2(1 -1)
2(1 -1)
2(1 -1)
2(1 -1)
2(1 -1)
2(1 -1)
2(1 -1)
2(1 -1)
2(1 -1)
2(1 -1)
2(1 -1)
2(1 -1)
2(1 -1)
2(1 -1)
2(1 -1)
2(1 -1)
2(1 -1)
2(1 -1)
2(1 -1)
2(1 -1)
2(1 -1)
2(1 -1)
2(1 -1)
2(1 -1)
2(1 -1)
2(1 -1)
2(1 -1)
2(1 -1)
2(1 -1)
2(1 -1)
2(1 -1)
2(1 -1)
2(1 -1)
2(1 -1)
2(1 -1)
2(1 -1)
2(1 -1)
2(1 -1)
2(1 -1)
2(1 -1)
2(1 -1)
2(1 -1)
2(1 -1)
2(1 -1)
2(1 -1)
2(1 -1)
2(1 -1)
2(1 -1)
2(1 -1)
2(1 -1)
2(1 -1)
2(1 -1)
2(1 -1)
2(1 -1)
2(1 -1)
2(1 -1)
2(1 -1)
2(1 -1)
2(1 -1)
2(1 -1)
2(1 -1)
2(1 -1)
2(1 -1)
2(1 -1)
2(1 -1)
2(1 -1)
2(1 -1)
2(1 -1)
2(1 -1)
2(1 -1)
2(1 -1)
2(1 -1)
2(1 -1)
2(1 -1)
2(1 -1)
2(1 -1)
2(1 -1)
2(1 -1)
2(1 -1)
2(1 -1)
2(1 -1)
2(1 -1)
2(1 -1)
2(1 -1)
2(1 -1)
2(1 -1)
2(1 -1)
2(1 -1)
2(1 -1)
2(1 -1)
2(1 -1)
2(1 -1)
2(1 -1)
2(1 -1)
2(1 -1)
2(1 -1)
2(1 -1)
2(1 -1)
2(1 -1)
2(1 -1)
2(1 -1)
2(1 -1)
2(1 -1)
2(1 -1)
2(1 -1)
2(1 -1)
2(1 -1)
2(1 -1)
2(1 -1)
2(1 -1)
2(1 -1)
2(1 -1)
2(1 -1)
2(1 -1)
2(1 -1)
2(1 -1)
2(1 -1)
2(1 -1)
2(1 -1)
2(1 -1)
2(1 -1)
2(1 -1)
2(1 -1)
2(1 -1)
6(1 1 1 -1 -1 -1)
6(1 1 1 -1 -1 -1)
6(1 1 1 -1 -1 -1)
6(1 1 1 -1 -1 -1)
6(1 1 1 -1 -1 -1)
6(1 1 1 -1 -1 -1)
6(1 1 1 -1 -1 -1)
6(1 1 1 -1 -1 -1)
6(1 1 1 -1 -1 -1)
6(1 1 1 -1 -1 -1)
6(1 1 1 -1 -1 -1)
6(1 1 1 -1 -1 -1)
6(1 1 1 -1 -1 -1)
6(1 1 1 -1 -1 -1)
6(1 1 1 -1 -1 -1)
6(1 1 1 -1 -1 -1)
6(1 1 1 -1 -1 -1)
6(1 1 1 -1 -1 -1)
6(1 1 1 -1 -1 -1)
6(1 1 1 -1 -1 -1)
6(1 1 1 -1 -1 -1)
6(1 1 1 -1 -1 -1)
6(1 1 1 -1 -1 -1)
6(1 1 1 -1 -1 -1)
6(1 1 1 -1 -1 -1)
6(1 1 1 -1 -1 -1)
6(1 1 1 -1 -1 -1)
6(1 1 1 -1 -1 -1)
6(1 1 1 -1 -1 -1)
6(1 1 1 -1 -1 -1)
6(1 1 1 -1 -1 -1)
6(1 1 1 -1 -1 -1)
6(1 1 1 -1 -1 -1)
6(1 1 1 -1 -1 -1)
6(1 1 1 -1 -1 -1)
6(1 1 1 -1 -1 -1)
6(1 1 1 -1 -1 -1)
6(1 1 1 -1 -1 -1)
6(1 1 1 -1 -1 -1)
6(1 1 1 -1 -1 -1)
6(1 1 1 -1 -1 -1)
6(1 1 1 -1 -1 -1)
6(1 1 1 -1 -1 -1)
6(1 1 1 -1 -1 -1)
6(1 1 1 -1 -1 -1)
6(1 1 1 -1 -1 -1)
6(1 1 1 -1 -1 -1)
6(1 1 1 -1 -1 -1)
6(1 1 1 -1 -1 -1)
6(1 1 1 -1 -1 -1)
6(1 1 1 -1 -1 -1)
6(1 1 1 -1 -1 -1)
6(1 1 1 -1 -1 -1)
6(1 1 1 -1 -1 -1)
6(1 1 1 -1 -1 -1)
6(1 1 1 -1 -1 -1)
6(1 1 1 -1 -1 -1)
6(1 1 1 -1 -1 -1)
6(1 1 1 -1 -1 -1)
6(1 1 1 -1 -1 -1)
6(1 1 1 -1 -1 -1)
6(1 1 1 -1 -1 -1)
6(1 1 1 -1 -1 -1)
6(1 1 1 -1 -1 -1)
6(1 1 1 -1 -1 -1)
6(1 1 1 -1 -1 -1)
6(1 1 1 -1 -1 -1)
6(1 1 1 -1 -1 -1)
6(1 1 1 -1 -1 -1)
6(1 1 1 -1 -1 -1)
6(1 1 1 -1 -1 -1)
6(1 1 1 -1 -1 -1)
6(1 1 1 -1 -1 -1)
6(1 1 1 -1 -1 -1)
6(1 1 1 -1 -1 -1)
6(1 1 1 -1 -1 -1)
6(1 1 1 -1 -1 -1)
6(1 1 1 -1 -1 -1)
6(1 1 1 -1 -1 -1)
6(1 1 1 -1 -1 -1)
6(1 1 1 -1 -1 -1)
6(1 1 1 -1 -1 -1)
6(1 1 1 -1 -1 -1)
6(1 1 1 -1 -1 -1)
6(1 1 1 -1 -1 -1)
6(1 1 1 -1 -1 -1)
6(1 1 1 -1 -1 -1)
6(1 1 1 -1 -1 -1)
6(1 1 1 -1 -1 -1)
6(1 1 1 -1 -1 -1)
6(1 1 1 -1 -1 -1)
6(1 1 1 -1 -1 -1)
6(1 1 1 -1 -1 -1)
6(1 1 1 -1 -1 -1)
6(1 1 1 -1 -1 -1)
6(1 1 1 -1 -1 -1)
6(1 1 1 -1 -1 -1)
6(1 1 1 -1 -1 -1)
6(1 1 1 -1 -1 -1)
6(1 1 1 -1 -1 -1)
6(1 1 1 -1 -1 -1)
6(1 1 1 -1 -1 -1)
6(1 1 1 -1 -1 -1)
6(1 1 1 -1 -1 -1)
6(1 1 1 -1 -1 -1)
6(1 1 1 -1 -1 -1)
6(1 1 1 -1 -1 -1)
6(1 1 1 -1 -1 -1)
6(1 1 1 -1 -1 -1)
6(1 1 1 -1 -1 -1)
6(1 1 1 -1 -1 -1)
6(1 1 1 -1 -1 -1)
6(1 1 1 -1 -1 -1)
6(1 1 1 -1 -1 -1)
6(1 1 1 -1 -1 -1)
6(1 1 1 -1 -1 -1)
6(1 1 1 -1 -1 -1)
6(1 1 1 -1 -1 -1)
6(1 1 1 -1 -1 -1)
6(1 1 1 -1 -1 -1)
6(1 1 1 -1 -1 -1)
6(1 1 1 -1 -1 -1)
6(1 1 1 -1 -1 -1)
6(1 1 1 -1 -1 -1)
6(1 1 1 -1 -1 -1)
6(1 1 1 -1 -1 -1)
6(1 1 1 -1 -1 -1)
6(1 1 1 -1 -1 -1)
6(1 1 1 -1 -1 -1)
6(1 1 1 -1 -1 -1)
6(1 1 1 -1 -1 -1)
6(1 1 1 -1 -1 -1)
6(1 1 1 -1 -1 -1)
6(1 1 1 -1 -1 -1)
6(1 1 1 -1 -1 -1)
6(1 1 1 -1 -1 -1)
6(1 1 1 -1 -1 -1)
6(1 1 1 -1 -1 -1)
6(1 1 1 -1 -1 -1)
6(1 1 1 -1 -1 -1)
6(1 1 1 -1 -1 -1)
6(1 1 1 -1 -1 -1)
6(1 1 1 -1 -1 -1)
6(1 1 1 -1 -1 -1)
6(1 1 1 -1 -1 -1)
6(1 1 1 -1 -1 -1)
6(1 1 1 -1 -1 -1)
6(1 1 1 -1 -1 -1)
6(1 1 1 -1 -1 -1)
6(1 1 1 -1 -1 -1)
6(1 1 1 -1 -1 -1)
6(1 1 1 -1 -1 -1)
6(1 1 1 -1 -1 -1)
6(1 1 1 -1 -1 -1)
6(1 1 1 -1 -1 -1)
6(1 1 1 -1 -1 -1)
6(1 1 1 -1 -1 -1)
6(1 1 1 -1 -1 -1)
6(1 1 1 -1 -1 -1)
6(1 1 1 -1 -1 -1)
6(1 1 1 -1 -1 -1)
6(1 1 1 -1 -1 -1)
6(1 1 1 -1 -1 -1)
6(1 1 1 -1 -1 -1)
6(1 1 1 -1 -1 -1)
6(1 1 1 -1 -1 -1)
6(1 1 1 -1 -1 -1)
6(1 1 1 -1 -1 -1)
6(1 1 1 -1 -1 -1)
6(1 1 1 -1 -1 -1)
6(1 1 1 -1 -1 -1)
6(1 1 1 -1 -1 -1)
6(1 1 1 -1 -1 -1)
6(1 1 1 -1 -1 -1)
6(1 1 1 -1 -1 -1)
6(1 1 1 -1 -1 -1)
6(1 1 1 -1 -1 -1)
6(1 1 1 -1 -1 -1)
6(1 1 1 -1 -1 -1)
6(1 1 1 -1 -1 -1)
6(1 1 1 -1 -1 -1)
6(1 1 1 -1 -1 -1)
6(1 1 1 -1 -1 -1)
6(1 1 1 -1 -1 -1)
6(1 1 1 -1 -1 -1)
6(1 1 1 -1 -1 -1)
6(1 1 1 -1 -1 -1)
6(1 1 1 -1 -1 -1)
6(1 1 1 -1 -1 -1)
6(1 1 1 -1 -1 -1)
6(1 1 1 -1 -1 -1)
6(1 1 1 -1 -1 -1)
6(1 1 1 -1 -1 -1)
6(1 1 1 -1 -1 -1)
6(1 1 1 -1 -1 -1)
6(1 1 1 -1 -1 -1)
6(1 1 1 -1 -1 -1)
6(1 1 1 -1 -1 -1)
6(1 1 1 -1 -1 -1)
6(1 1 1 -1 -1 -1)
6(1 1 1 -1 -1 -1)
6(1 1 1 -1 -1 -1)
6(1 1 1 -1 -1 -1)
6(1 1 1 -1 -1 -1)
6(1 1 1 -1 -1 -1)
6(1 1 1 -1 -1 -1)
6(1 1 1 -1 -1 -1)
6(1 1 1 -1 -1 -1)
6(1 1 1 -1 -1 -1)
6(1 1 1 -1 -1 -1)
6(1 1 1 -1 -1 -1)
6(1 1 1 -1 -1 -1)
6(1 1 1 -1 -1 -1)
6(1 1 1 -1 -1 -1)
6(1 1 1 -1 -1 -1)
6(1 1 1 -1 -1 -1)
6(1 1 1 -1 -1 -1)
6(1 1 1 -1 -1 -1)
6(1 1 1 -1 -1 -1)
6(1 1 1 -1 -1 -1)
6(1 1 1 -1 -1 -1)
6(1 1 1 -1 -1 -1)
6(1 1 1 -1 -1 -1)
6(1 1 1 -1 -1 -1)
6(1 1 1 -1 -1 -1)
6(1 1 1 -1 -1 -1)
6(1 1 1 -1 -1 -1)
6(1 1 1 -1 -1 -1)
6(1 1 1 -1 -1 -1)
6(1 1 1 -1 -1 -1)
6(1 1 1 -1 -1 -1)
6(1 1 1 -1 -1 -1)
6(1 1 1 -1 -1 -1)
6(1 1 1 -1 -1 -1)
6(1 1 1 -1 -1 -1)
6(1 1 1 -1 -1 -1)
6(1 1 1 -1 -1 -1)
6(1 1 1 -1 -1 -1)
6(1 1 1 -1 -1 -1)
6(1 1 1 -1 -1 -1)
6(1 1 1 -1 -1 -1)
6(1 1 1 -1 -1 -1)
6(1 1 1 -1 -1 -1)
6(1 1 1 -1 -1 -1)
6(1 1 1 -1 -1 -1)
6(1 1 1 -1 -1 -1)
6(1 1 1 -1 -1 -1)
6(1 1 1 -1 -1 -1)
6(1 1 1 -1 -1 -1)
6(1 1 1 -1 -1 -1)
6(1 1 1 -1 -1 -1)
6(1 1 1 -1 -1 -1)
)

// edgeNormals

420
(
2(504 505)
2(504 506)
2(507 508)
2(507 509)
2(508 506)
2(510 511)
2(510 512)
2(511 513)
2(514 515)
2(514 512)
2(515 513)
2(505 509)
2(516 517)
2(516 518)
2(519 520)
2(519 521)
2(520 518)
2(522 523)
2(522 524)
2(523 525)
2(526 527)
2(526 524)
2(527 525)
2(517 521)
2(528 529)
2(528 530)
2(531 532)
2(531 533)
2(532 530)
2(534 535)
2(534 536)
2(535 537)
2(538 539)
2(538 536)
2(539 537)
2(529 533)
2(540 541)
2(540 542)
2(543 544)
2(543 545)
2(544 542)
2(546 547)
2(546 548)
2(547 549)
2(550 551)
2(550 548)
2(551 549)
2(541 545)
2(552 553)
2(552 554)
2(555 556)
2(555 557)
2(556 554)
2(558 559)
2(558 560)
2(559 561)
2(562 563)
2(562 560)
2(563 561)
2(553 557)
2(564 565)
2(564 566)
2(567 568)
2(567 569)
2(568 566)
2(570 571)
2(570 572)
2(571 573)
2(574 575)
2(574 572)
2(575 573)
2(565 569)
2(576 577)
2(576 578)
2(579 580)
2(579 581)
2(580 578)
2(582 583)
2(582 584)
2(583 585)
2(586 587)
2(586 584)
2(587 585)
2(577 581)
2(588 589)
2(588 590)
2(591 592)
2(591 593)
2(592 590)
2(594 595)
2(594 596)
2(595 597)
2(598 599)
2(598 596)
2(599 597)
2(589 593)
2(600 601)
2(600 602)
2(603 604)
2(603 605)
2(604 602)
2(606 607)
2(606 608)
2(607 609)
2(610 611)
2(610 608)
2(611 609)
2(601 605)
2(612 613)
2(612 614)
2(615 616)
2(615 617)
2(616 614)
2(618 619)
2(618 620)
2(619 621)
2(622 623)
2(622 620)
2(623 621)
2(613 617)
2(624 625)
2(624 626)
2(627 628)
2(627 629)
2(628 626)
2(630 631)
2(630 632)
2(631 633)
2(634 635)
2(634 632)
2(635 633)
2(625 629)
2(636 637)
2(636 638)
2(639 640)
2(639 641)
2(640 638)
2(642 643)
2(642 644)
2(643 645)
2(646 647)
2(646 644)
2(647 645)
2(637 641)
2(648 649)
2(648 650)
2(651 652)
2(651 653)
2(652 650)
2(654 655)
2(654 656)
2(655 657)
2(658 659)
2(658 656)
2(659 657)
2(649 653)
2(660 661)
2(660 662)
2(663 664)
2(663 665)
2(664 662)
2(666 667)
2(666 668)
2(667 669)
2(670 671)
2(670 668)
2(671 669)
2(661 665)
6(0 1 2 3 4 5)
6(0 1 2 6 7 8)
6(0 1 2 9 10 11)
6(3 4 5 12 13 14)
6(3 4 5 15 16 17)
6(12 13 14 18 19 20)
6(12 13 14 9 10 11)
6(18 19 20 21 22 23)
6(18 19 20 24 25 26)
6(21 22 23 27 28 29)
6(21 22 23 30 31 32)
6(27 28 29 33 34 35)
6(27 28 29 24 25 26)
6(33 34 35 6 7 8)
6(33 34 35 30 31 32)
6(6 7 8 15 16 17)
6(24 25 26 15 16 17)
6(9 10 11 30 31 32)
6(36 37 38 39 40 41)
6(36 37 38 42 43 44)
6(36 37 38 45 46 47)
6(39 40 41 48 49 50)
6(39 40 41 51 52 53)
6(48 49 50 54 55 56)
6(48 49 50 45 46 47)
6(54 55 56 57 58 59)
6(54 55 56 60 61 62)
6(57 58 59 63 64 65)
6(57 58 59 66 67 68)
6(63 64 65 69 70 71)
6(63 64 65 60 61 62)
6(69 70 71 42 43 44)
6(69 70 71 66 67 68)
6(42 43 44 51 52 53)
6(60 61 62 51 52 53)
6(45 46 47 66 67 68)
6(72 73 74 75 76 77)
6(72 73 74 78 79 80)
6(72 73 74 81 82 83)
6(75 76 77 84 85 86)
6(75 76 77 87 88 89)
6(84 85 86 90 91 92)
6(84 85 86 81 82 83)
6(90 91 92 93 94 95)
6(90 91 92 96 97 98)
6(93 94 95 99 100 101)
6(93 94 95 102 103 104)
6(99 100 101 105 106 107)
6(99 100 101 96 97 98)
6(105 106 107 78 79 80)
6(105 106 107 102 103 104)
6(78 79 80 87 88 89)
6(96 97 98 87 88 89)
6(81 82 83 102 103 104)
6(108 109 110 111 112 113)
6(108 109 110 114 115 116)
6(108 109 110 117 118 119)
6(111 112 113 120 121 122)
6(111 112 113 123 124 125)
6(120 121 122 126 127 128)
6(120 121 122 117 118 119)
6(126 127 128 129 130 131)
6(126 127 128 132 133 134)
6(129 130 131 135 136 137)
6(129 130 131 138 139 140)
6(135 136 137 141 142 143)
6(135 136 137 132 133 134)
6(141 142 143 114 115 116)
6(141 142 143 138 139 140)
6(114 115 116 123 124 125)
6(132 133 134 123 124 125)
6(117 118 119 138 139 140)
6(144 145 146 147 148 149)
6(144 145 146 150 151 152)
6(144 145 146 153 154 155)
6(147 148 149 156 157 158)
6(147 148 149 159 160 161)
6(156 157 158 162 163 164)
6(156 157 158 153 154 155)
6(162 163 164 165 166 167)
6(162 163 164 168 169 170)
6(165 166 167 171 172 173)
6(165 166 167 174 175 176)
6(171 172 173 177 178 179)
6(171 172 173 168 169 170)
6(177 178 179 150 151 152)
6(177 178 179 174 175 176)
6(150 151 152 159 160 161)
6(168 169 170 159 160 161)
6(153 154 155 174 175 176)
6(180 181 182 183 184 185)
6(180 181 182 186 187 188)
6(180 181 182 189 190 191)
6(183 184 185 192 193 194)
6(183 184 185 195 196 197)
6(192 193 194 198 199 200)
6(192 193 194 189 190 191)
6(198 199 200 201 202 203)
6(198 199 200 204 205 206)
6(201 202 203 207 208 209)
6(201 202 203 210 211 212)
6(207 208 209 213 214 215)
6(207 208 209 204 205 206)
6(213 214 215 186 187 188)
6(213 214 215 210 211 212)
6(186 187 188 195 196 197)
6(204 205 206 195 196 197)
6(189 190 191 210 211 212)
6(216 217 218 219 220 221)
6(216 217 218 222 223 224)
6(216 217 218 225 226 227)
6(219 220 221 228 229 230)
6(219 220 221 231 232 233)
6(228 229 230 234 235 236)
6(228 229 230 225 226 227)
6(234 235 236 237 238 239)
6(234 235 236 240 241 242)
6(237 238 239 243 244 245)
6(237 238 239 246 247 248)
6(243 244 245 249 250 251)
6(243 244 245 240 241 242)
6(249 250 251 222 223 224)
6(249 250 251 246 247 248)
6(222 223 224 231 232 233)
6(240 241 242 231 232 233)
6(225 226 227 246 247 248)
6(252 253 254 255 256 257)
6(252 253 254 258 259 260)
6(252 253 254 261 262 263)
6(255 256 257 264 265 266)
6(255 256 257 267 268 269)
6(264 265 266 270 271 272)
6(264 265 266 261 262 263)
6(270 271 272 273 274 275)