/*--------------------------------*- C++ -*----------------------------------*\
  =========                 |
  \\      /  F ield         | OpenFOAM: The Open Source CFD Toolbox
   \\    /   O peration     | Website:  https://openfoam.org
    \\  /    A nd           | Version:  7
     \\/     M anipulation  |
\*---------------------------------------------------------------------------*/
FoamFile
{
    version     2.0;
    format      ascii;
    class       extendedFeatureEdgeMesh;
    location    "constant/extendedFeatureEdgeMesh";
    object      water_space_xyz0_rotate.extendedFeatureEdgeMesh;
}
// * * * * * * * * * * * * * * * * * * * * * * * * * * * * * * * * * * * * * //

// points

5285
(
(230.82899 794.61401 1.95)
(238 778.76001 1.95)
(237.879 778.638 1.95)
(237.75101 778.51099 1.95)
(322.33301 328.47601 1.95)
(322.328 328.47101 1.95)
(322.323 328.466 1.95)
(322.31699 328.45999 1.95)
(314.27899 331.82401 1.95)
(308.60599 295.259 1.95)
(307.82101 295.62399 1.95)
(318.853 322.25601 1.95)
(305.396 312.246 1.95)
(305.40201 312.25201 1.95)
(305.41199 312.26199 1.95)
(305.44601 312.29599 1.95)
(305.457 312.30701 1.95)
(276.642 220.737 1.95)
(280.22198 227.10001 1.95)
(280.39301 250.20799 1.95)
(280.43201 250.24699 1.95)
(274.43201 236.95599 1.95)
(274.841 236.923 1.95)
(291.022 253.50101 1.95)
(290.978 253.50101 1.95)
(290.48599 253.98199 1.95)
(290.57999 254.03101 1.95)
(290.58499 254.037 1.95)
(-277.862 196.474 1.95)
(-286.05499 177.01199 1.95)
(-245.683 150.12 1.95)
(-233.96001 177.97301 1.95)
(350.789 415.401 1.95)
(429.08401 382.94601 1.95)
(434.14499 390.52499 1.95)
(384.96201 411.302 1.95)
(350.89899 415.64401 1.95)
(377.72 414.401 1.95)
(349.30899 418.384 1.95)
(348.69501 416.84299 1.95)
(351.004 415.88101 1.95)
(366.495 419.21799 1.95)
(366.384 419.285 1.95)
(366.345 419.29001 1.95)
(366.25699 419.33401 1.95)
(366.202 419.367 1.95)
(366.11899 419.41699 1.95)
(366.03601 419.46701 1.95)
(365.987 419.50601 1.95)
(365.90302 419.55499 1.95)
(365.854 419.59399 1.95)
(365.78201 419.65399 1.95)
(365.73199 419.69299 1.95)
(365.66 419.754 1.95)
(365.616 419.798 1.95)
(365.54999 419.86499 1.95)
(365.50601 419.909 1.95)
(365.44 419.97501 1.95)
(365.35699 420.069 1.95)
(365.30099 420.146 1.95)
(365.263 420.19601 1.95)
(365.20801 420.27399 1.95)
(365.16901 420.323 1.95)
(365.11899 420.40601 1.95)
(365.069 420.48801 1.95)
(365.03601 420.54401 1.95)
(364.992 420.63199 1.95)
(364.948 420.72101 1.95)
(364.914 420.776 1.95)
(364.87601 420.87 1.95)
(364.84299 420.96899 1.95)
(364.81 421.069 1.95)
(364.77701 421.168 1.95)
(364.74899 421.27399 1.95)
(364.74301 421.31201 1.95)
(364.716 421.41699 1.95)
(364.716 421.461 1.95)
(364.69299 421.57101 1.95)
(364.694 421.616 1.95)
(364.677 421.73199 1.95)
(364.677 421.82001 1.95)
(364.66101 421.936 1.95)
(364.66599 421.98599 1.95)
(364.677 422.08499 1.95)
(364.68301 422.13501 1.95)
(364.67099 422.25601 1.95)
(364.677 422.306 1.95)
(364.68799 422.405 1.95)
(364.70401 422.51001 1.95)
(364.716 422.56601 1.95)
(364.74301 422.59299 1.95)
(364.754 422.64899 1.95)
(364.76001 422.698 1.95)
(364.771 422.754 1.95)
(364.793 422.86401 1.95)
(364.82599 422.89801 1.95)
(364.83801 422.953 1.95)
(364.85901 423.06299 1.95)
(364.892 423.09601 1.95)
(364.90399 423.151 1.95)
(391.95599 487.371 1.95)
(392.01099 487.55899 1.95)
(392.04999 487.642 1.95)
(392.133 487.81299 1.95)
(392.237 487.96201 1.95)
(392.32101 488.133 1.95)
(392.431 488.28799 1.95)
(392.47501 488.37601 1.95)
(392.57999 488.526 1.95)
(392.69 488.67999 1.95)
(392.75699 488.74701 1.95)
(392.89001 488.879 1.95)
(392.93301 488.96701 1.95)
(393.06601 489.10001 1.95)
(393.133 489.16699 1.95)
(393.26501 489.29901 1.95)
(393.42001 489.41 1.95)
(393.552 489.54199 1.95)
(393.707 489.65302 1.95)
(393.77301 489.71899 1.95)
(393.94501 489.802 1.95)
(394.01099 489.86801 1.95)
(394.10001 489.91299 1.95)
(394.24799 490.017 1.95)
(394.33701 490.061 1.95)
(394.50299 490.13901 1.95)
(394.591 490.18301 1.95)
(394.75699 490.26099 1.95)
(394.845 490.30399 1.95)
(395.01099 490.38199 1.95)
(395.19299 490.431 1.95)
(395.276 490.47 1.95)
(395.45801 490.51999 1.95)
(395.64001 490.569 1.95)
(395.81799 490.61401 1.95)
(395.91699 490.625 1.95)
(396.09399 490.66901 1.95)
(412.302 494.591 1.95)
(420.94199 504.91101 1.95)
(460.38501 594.02802 1.95)
(460.42899 594.07202 1.95)
(463.224 600.35901 1.95)
(465.617 605.71198 1.95)
(465.66599 605.76202 1.95)
(465.716 605.81097 1.95)
(465.73801 605.83398 1.95)
(465.76599 605.86102 1.95)
(465.78799 605.883 1.95)
(465.815 605.91101 1.95)
(347.07101 417.517 1.95)
(348.50699 416.92001 1.95)
(349.142 418.439 1.95)
(347.707 419.03601 1.95)
(345.32001 418.241 1.95)
(346.75601 417.64301 1.95)
(347.37 419.185 1.95)
(345.95499 419.759 1.95)
(345.767 419.83701 1.95)
(337.60199 421.439 1.95)
(345.13199 418.31799 1.95)
(374.444 510.60599 1.95)
(339.44199 426.45999 1.95)
(339.65799 426.367 1.95)
(425.035 540.20502 1.95)
(378.92899 513.23602 1.95)
(443.39801 573.85901 1.95)
(438.42599 572.06897 1.95)
(456.27499 603.26501 1.95)
(459.21399 609.96002 1.95)
(450.905 622.33502 1.95)
(449.436 619.05402 1.95)
(456.37 616.263 1.95)
(460.28601 622.96399 1.95)
(452.646 626.328 1.95)
(451.867 624.534 1.95)
(457.297 615.73297 1.95)
(466.384 628.31201 1.95)
(466.19101 628.33899 1.95)
(466.319 628.11298 1.95)
(467.091 626.89801 1.95)
(467.37299 627.66498 1.95)
(468.98599 626.98102 1.95)
(467.70401 627.51099 1.95)
(467.39499 626.76001 1.95)
(468.72101 626.185 1.95)
(470.69299 626.25702 1.95)
(469.34 626.80402 1.95)
(469.03601 626.05798 1.95)
(470.37799 625.5 1.95)
(470.68799 625.367 1.95)
(472.323 625.54401 1.95)
(470.99701 626.11902 1.95)
(472.047 624.82599 1.95)
(473.715 624.948 1.95)
(472.60501 625.42798 1.95)
(472.31799 624.69897 1.95)
(474.12399 624.78198 1.95)
(474.68701 618.76001 1.95)
(475.444 610.89899 1.95)
(467.771 606.23102 1.95)
(467.80399 606.21997 1.95)
(467.70499 606.25299 1.95)
(467.56699 606.29199 1.95)
(467.63901 606.276 1.95)
(467.495 606.30902 1.95)
(467.423 606.32599 1.95)
(467.30701 606.34198 1.95)
(467.34601 606.336 1.95)
(467.384 606.33099 1.95)
(467.25699 606.336 1.95)
(467.29599 606.33099 1.95)
(467.13599 606.34698 1.95)
(467.21899 606.34198 1.95)
(465.85901 605.91101 1.95)
(465.88699 605.93799 1.95)
(465.91 605.961 1.95)
(465.95901 606.01001 1.95)
(466.009 606.01599 1.95)
(466.03101 606.03802 1.95)
(466.05301 606.06 1.95)
(466.07999 606.08698 1.95)
(466.125 606.08801 1.95)
(466.15302 606.11603 1.95)
(466.17401 606.13702 1.95)
(466.21799 606.13702 1.95)
(466.241 606.15997 1.95)
(466.29099 606.16498 1.95)
(466.31299 606.18701 1.95)
(466.33499 606.20898 1.95)
(466.379 606.20898 1.95)
(466.401 606.23199 1.95)
(466.44501 606.23199 1.95)
(466.46701 606.25299 1.95)
(466.517 606.25897 1.95)
(466.534 606.276 1.95)
(466.578 606.276 1.95)
(466.62201 606.27502 1.95)
(466.64401 606.297 1.95)
(466.68799 606.29797 1.95)
(466.70999 606.32001 1.95)
(466.754 606.32001 1.95)
(466.79401 606.315 1.95)
(466.815 606.336 1.95)
(466.89801 606.33099 1.95)
(466.91501 606.34698 1.95)
(466.95901 606.34698 1.95)
(467.04199 606.34198 1.95)
(467.07999 606.336 1.95)
(467.09698 606.35303 1.95)
(498.94901 679.52802 1.95)
(488.95099 686.19 1.95)
(483.78601 673.73199 1.95)
(497.315 676.125 1.95)
(500.397 672.00299 1.95)
(505.39099 669.92603 1.95)
(495.707 658.961 1.95)
(508.65701 653.70099 1.95)
(484.05099 652.12097 1.95)
(485.15601 651.63599 1.95)
(484.366 652.83398 1.95)
(482.383 652.83899 1.95)
(483.73099 652.24298 1.95)
(484.04501 653 1.95)
(475.13501 676.30701 1.95)
(475.02399 676.284 1.95)
(482.70901 653.56299 1.95)
(480.76999 653.52399 1.95)
(482.08401 652.98297 1.95)
(482.39999 653.69598 1.95)
(481.06201 654.26001 1.95)
(474.68201 676.20801 1.95)
(479.10699 654.24799 1.95)
(480.43799 653.67902 1.95)
(480.77499 654.37 1.95)
(474.64899 676.17401 1.95)
(474.52701 676.14001 1.95)
(479.39999 654.98297 1.95)
(477.72 654.84998 1.95)
(478.80301 654.38599 1.95)
(479.112 655.09399 1.95)
(474.84799 667.84399 1.95)
(474.47101 676.13 1.95)
(471.82501 671.14203 1.95)
(472.035 669.58398 1.95)
(472.108 671.599 1.95)
(472.04099 675.24701 1.95)
(470.84799 672.32898 1.95)
(473.45001 674.88702 1.95)
(474.27301 676.02002 1.95)
(474.013 675.89203 1.95)
(473.953 675.87598 1.95)
(473.40601 675.46198 1.95)
(473.60501 675.396 1.95)
(473.73199 675.69897 1.95)
(473.63199 675.64398 1.95)
(473.54901 675.56097 1.95)
(473.67099 675.68298 1.95)
(391.55301 743.82501 1.95)
(391.34299 743.30499 1.95)
(391.155 743.38202 1.95)
(391.54099 744.29999 1.95)
(390.918 744.55902 1.95)
(390.53601 743.64801 1.95)
(390.34299 743.71899 1.95)
(339.547 765.57898 1.95)
(331.75299 768.83197 1.95)
(438.77499 681.71002 1.95)
(331.84601 768.79401 1.95)
(332.05099 768.68903 1.95)
(378.98999 703.862 1.95)
(332.47601 768.40698 1.95)
(332.62 768.28601 1.95)
(332.70801 768.198 1.95)
(325.67599 726.78198 1.95)
(324.858 725.65503 1.95)
(295.298 738.388 1.95)
(223.145 768.89899 1.95)
(222.714 767.14203 1.95)
(333.35999 767.34698 1.95)
(333.60901 766.71198 1.95)
(139.77299 815.414 1.95)
(333.73599 765.86603 1.95)
(333.741 765.69598 1.95)
(333.72501 765.59003 1.95)
(333.70801 765.35303 1.95)
(333.67999 765.19202 1.95)
(333.61401 764.90503 1.95)
(333.52499 764.64001 1.95)
(333.45999 764.48499 1.95)
(333.38699 764.32501 1.95)
(333.27701 764.12598 1.95)
(333.18301 763.98798 1.95)
(333.08301 763.84399 1.95)
(332.96201 763.72302 1.95)
(332.90701 763.62299 1.95)
(332.62601 763.34198 1.95)
(332.48199 763.24298 1.95)
(332.40399 763.16498 1.95)
(332.26001 763.065 1.95)
(332.16101 763.01001 1.95)
(332.06201 762.95502 1.95)
(331.86301 762.84399 1.95)
(331.703 762.77197 1.95)
(331.26099 762.64001 1.95)
(330.98401 762.58502 1.95)
(330.819 762.552 1.95)
(330.71399 762.53497 1.95)
(330.48801 762.53003 1.95)
(330.311 762.53003 1.95)
(330.14499 762.53998 1.95)
(329.91299 762.57397 1.95)
(329.69199 762.61798 1.95)
(329.41599 762.69501 1.95)
(329.25601 762.75598 1.95)
(272.444 786.37799 1.95)
(272.29999 786.45502 1.95)
(272.10699 786.57098 1.95)
(271.952 786.68201 1.95)
(271.90201 786.71997 1.95)
(271.78101 786.82001 1.95)
(271.68701 786.90198 1.95)
(271.466 787.12402 1.95)
(271.345 787.26703 1.95)
(271.306 787.31702 1.95)
(271.21201 787.44397 1.95)
(271.14001 787.54901 1.95)
(271.02399 787.742 1.95)
(270.953 787.89203 1.95)
(270.88599 788.04602 1.95)
(270.82001 788.20099 1.95)
(270.76501 788.367 1.95)
(270.73599 788.47101 1.95)
(270.71399 788.58197 1.95)
(270.67099 788.80298 1.95)
(270.638 789.03497 1.95)
(270.62601 789.20099 1.95)
(270.63199 789.427 1.95)
(270.64301 789.526 1.95)
(270.64899 789.70898 1.95)
(270.72601 790.09601 1.95)
(270.74799 790.20599 1.95)
(270.84201 790.47699 1.95)
(270.90799 790.63202 1.95)
(270.95801 790.72498 1.95)
(271.02899 790.88599 1.95)
(271.17899 791.12299 1.95)
(271.27802 791.26703 1.95)
(271.49399 791.52698 1.95)
(271.69199 791.72601 1.95)
(271.91299 791.90198 1.95)
(272.05701 792.00098 1.95)
(272.19501 792.09497 1.95)
(266.284 791.92999 1.95)
(265.00299 793.29999 1.95)
(264.15201 794.08398 1.95)
(263.29001 794.81299 1.95)
(262.39999 795.47101 1.95)
(260.82101 796.49799 1.95)
(259.50601 797.21698 1.95)
(258.48401 797.69702 1.95)
(256.79901 798.39899 1.95)
(254.899 799.15002 1.95)
(252.948 799.80798 1.95)
(250.95399 800.37598 1.95)
(248.965 800.81799 1.95)
(246.939 801.177 1.95)
(244.20399 801.492 1.95)
(239.48 800.83502 1.95)
(237.293 800.15002 1.95)
(235.216 799.31 1.95)
(234.211 798.87903 1.95)
(232.752 798.12799 1.95)
(231.78999 797.60901 1.95)
(233.586 802.45398 1.95)
(233.614 802.52502 1.95)
(233.636 802.547 1.95)
(233.631 802.586 1.95)
(233.636 802.591 1.95)
(233.63 802.63098 1.95)
(233.64101 802.64099 1.95)
(233.642 802.68597 1.95)
(233.63499 802.76801 1.95)
(233.63 802.80701 1.95)
(233.586 802.94 1.95)
(233.614 802.87903 1.95)
(233.625 802.84601 1.95)
(233.55901 803 1.95)
(233.54201 803.02899 1.95)
(233.509 803.08301 1.95)
(217.08 792.53198 1.95)
(221.64301 803.54797 1.95)
(221.66499 803.61298 1.95)
(221.64799 803.59698 1.95)
(221.68201 803.63 1.95)
(221.687 803.67999 1.95)
(221.737 803.729 1.95)
(221.715 803.70697 1.95)
(221.96899 803.91699 1.95)
(221.92999 803.922 1.95)
(222.024 803.97302 1.95)
(233.42 803.17102 1.95)
(222.062 803.96698 1.95)
(222.073 803.97803 1.95)
(233.36501 803.20502 1.95)
(233.33701 803.22198 1.95)
(233.27699 803.24902 1.95)
(233.216 803.27698 1.95)
(233.183 803.28699 1.95)
(233.144 803.29303 1.95)
(233.11 803.30402 1.95)
(233.078 803.31598 1.95)
(233.067 803.30402 1.95)
(233.033 803.315 1.95)
(233.02299 803.30402 1.95)
(232.99001 803.315 1.95)
(232.978 803.30402 1.95)
(232.94 803.30902 1.95)
(232.929 803.29797 1.95)
(232.89 803.30402 1.95)
(222.19 804.00598 1.95)
(222.14999 804.01202 1.95)
(232.884 803.29901 1.95)
(232.87399 803.28802 1.95)
(232.862 803.27698 1.95)
(232.82899 803.28699 1.95)
(222.256 804.02802 1.95)
(232.823 803.28198 1.95)
(232.80701 803.26599 1.95)
(222.295 804.02301 1.95)
(222.339 804.02197 1.95)
(222.345 804.02802 1.95)
(222.383 804.02197 1.95)
(232.80099 803.26001 1.95)
(232.763 803.26599 1.95)
(222.427 804.02197 1.95)
(222.38901 804.02802 1.95)
(232.758 803.26001 1.95)
(232.746 803.24902 1.95)
(222.466 804.01703 1.95)
(222.43201 804.02802 1.95)
(232.73599 803.23798 1.95)
(232.724 803.22699 1.95)
(232.713 803.21503 1.95)
(232.674 803.22198 1.95)
(232.66901 803.216 1.95)
(232.65199 803.20001 1.95)
(222.57001 803.98901 1.95)
(222.53799 804 1.95)
(232.647 803.19397 1.95)
(232.63 803.17798 1.95)
(232.625 803.172 1.95)
(232.608 803.15503 1.95)
(222.604 803.97803 1.95)
(222.632 803.961 1.95)
(222.66499 803.95099 1.95)
(222.692 803.93402 1.95)
(232.60201 803.15002 1.95)
(232.586 803.133 1.95)
(222.72501 803.92297 1.95)
(232.58 803.12799 1.95)
(232.564 803.11102 1.95)
(232.55299 803.09998 1.95)
(232.54201 803.08899 1.95)
(232.53101 803.078 1.95)
(232.51401 803.06097 1.95)
(232.509 803.05603 1.95)
(232.48599 803.034 1.95)
(232.492 802.995 1.95)
(232.487 802.98901 1.95)
(232.459 802.961 1.95)
(229.631 796.24402 1.95)
(218.96899 792.52002 1.95)
(223.034 802.995 1.95)
(223.067 803.02802 1.95)
(223.062 803.06702 1.95)
(223.07899 803.08301 1.95)
(223.07401 803.12201 1.95)
(223.084 803.133 1.95)
(222.935 803.73602 1.95)
(223.09 803.22699 1.95)
(223.106 803.24402 1.95)
(222.99001 803.65802 1.95)
(223.09 803.35901 1.95)
(223.084 803.39801 1.95)
(223.07899 803.43701 1.95)
(223.056 803.50299 1.95)
(223.04601 803.53601 1.95)
(223.035 803.57001 1.95)
(223.019 803.59698 1.95)
(243.03799 790.073 1.95)
(241.75101 783.21802 1.95)
(241.14301 796.841 1.95)
(241.481 796.02899 1.95)
(241.69501 795.31598 1.95)
(241.93401 793.87402 1.95)
(241.95 793.58099 1.95)
(241.95599 793.14502 1.95)
(233.564 796.68701 1.95)
(232.78 796.211 1.95)
(231.845 795.54303 1.95)
(231.498 795.23798 1.95)
(230.99001 794.77502 1.95)
(241.69099 791.112 1.95)
(230.50301 794.28802 1.95)
(238.77901 780.33502 1.95)
(238.74001 780.16302 1.95)
(238.487 779.51099 1.95)
(238.42599 779.40601 1.95)
(238.248 779.09698 1.95)
(238.188 778.992 1.95)
(238.105 778.909 1.95)
(237.668 778.42798 1.95)
(225.791 790.98999 1.95)
(237.564 778.36798 1.95)
(237.519 778.323 1.95)
(237.375 778.224 1.95)
(237.23199 778.125 1.95)
(237.127 778.06403 1.95)
(237.022 778.00299 1.95)
(236.862 777.93103 1.95)
(236.702 777.85901 1.95)
(211.317 789.37701 1.95)
(223.338 790.26099 1.95)
(215.73199 790.29999 1.95)
(217.04601 790.33301 1.95)
(218.12399 790.26099 1.95)
(415.05801 493.67999 1.95)
(416.68799 495.39801 1.95)
(417.25201 496.40399 1.95)
(426.77499 516.35699 1.95)
(434.55899 532.53802 1.95)
(437.70801 539.841 1.95)
(450.237 570.534 1.95)
(443.315 574.21802 1.95)
(424.78101 540.349 1.95)
(391.79001 744.37097 1.95)
(390.79001 744.78497 1.95)
(-1.6815701 123.476 1.95)
(34.066101 163.688 1.95)
(34.5187 164.14 1.95)
(-7.18929 117.173 1.95)
(-11.2165 119.289 1.95)
(-8.28864 115.057 1.95)
(-7.7969098 115.637 1.95)
(-38.396099 129.675 1.95)
(-12.2937 117.018 1.95)
(-41.461498 131.51401 1.95)
(-51.438702 139.127 1.95)
(-52.4165 137.265 1.95)
(-41.710701 131.66299 1.95)
(-40.677502 133.448 1.95)
(-37.749699 132.089 1.95)
(-33.7668 129.70799 1.95)
(-37.058998 131.763 1.95)
(34.861198 164.394 1.95)
(-26.739901 126.305 1.95)
(-19.9783 123.477 1.95)
(-19.8123 123.377 1.95)
(-19.640699 123.283 1.95)
(-19.2931 123.145 1.95)
(-19.1159 123.1 1.95)
(-18.933701 123.062 1.95)
(-18.5693 123.029 1.95)
(-18.386999 123.034 1.95)
(-18.1992 123.045 1.95)
(-18.027901 123.084 1.95)
(-17.4865 123.228 1.95)
(-17.851101 123.128 1.95)
(-6.8909702 125.912 1.95)
(-17.3153 123.311 1.95)
(-17.000401 123.493 1.95)
(-16.5861 123.863 1.95)
(-16.845699 123.603 1.95)
(-16.453501 123.996 1.95)
(-16.243601 124.294 1.95)
(-14.1444 127.233 1.95)
(-16.1607 124.465 1.95)
(-13.7632 127.216 1.95)
(-5.7526002 141.41299 1.95)
(-11.3213 132.442 1.95)
(-10.9125 132.144 1.95)
(-5.7971401 128.067 1.95)
(-0.77011299 125.537 1.95)
(32.425201 110.693 1.95)
(31.928101 109.666 1.95)
(48.406799 100.998 1.95)
(51.478802 106.987 1.95)
(33.480202 166.549 1.95)
(71.813599 148.756 1.95)
(126.896 76.868202 1.95)
(103.567 85.182297 1.95)
(146.661 117.405 1.95)
(146.827 117.659 1.95)
(147.14301 117.974 1.95)
(147.39101 118.135 1.95)
(147.51199 118.211 1.95)
(147.8 118.322 1.95)
(148.07001 118.416 1.95)
(148.36301 118.444 1.95)
(148.66701 118.438 1.95)
(148.965 118.383 1.95)
(146.617 120.587 1.95)
(125.725 78.7024 1.95)
(125.415 78.3927 1.95)
(88.170601 93.1203 1.95)
(70.222099 150.302 1.95)
(87.794899 144.231 1.95)
(66.299698 97.765999 1.95)
(89.435402 95.843498 1.95)
(102.81 96.7994 1.95)
(108.693 95.479401 1.95)
(108.273 105.489 1.95)
(110.124 107.428 1.95)
(117.704 107.23 1.95)
(113.488 115.168 1.95)
(113.594 118.057 1.95)
(126.078 123.736 1.95)
(110.251 136.679 1.95)
(106.589 136.19901 1.95)
(82.563599 86.541 1.95)
(86.982803 95.6007 1.95)
(83 87.1101 1.95)
(102.003 106.865 1.95)
(107.323 768.95502 1.95)
(106.462 766.94397 1.95)
(107.224 766.60101 1.95)
(107.125 766.36902 1.95)
(106.555 766.59601 1.95)
(106.119 765.45203 1.95)
(106.66 765.242 1.95)
(106.561 765.01001 1.95)
(105.793 765.30298 1.95)
(104.512 762.51898 1.95)
(303.41901 680.39398 1.95)
(302.95999 679.14099 1.95)
(305.05399 678.27301 1.95)
(417.59399 640.90698 1.95)
(305.56799 679.49402 1.95)
(414.66101 634.43799 1.95)
(415.78201 637.06201 1.95)
(415.871 637.06201 1.95)
(-1.11256 113.969 1.95)
(-1.37229 113.488 1.95)
(130.10001 49.799301 1.95)
(130.492 50.544601 1.95)
(294.81699 244.612 1.95)
(314.70401 292.42999 1.95)
(328.67499 326.02399 1.95)
(327.49301 326.698 1.95)
(322.36099 328.72501 1.95)
(322.37799 328.698 1.95)
(248.993 133.867 1.95)
(227.173 86.369904 1.95)
(218.931 90.679001 1.95)
(212.39999 93.341301 1.95)
(201.838 96.699799 1.95)
(322.39999 328.67599 1.95)
(213.842 124.128 1.95)
(229.83501 162.483 1.95)
(322.41101 328.642 1.95)
(322.422 328.60901 1.95)
(322.41101 328.59799 1.95)
(322.405 328.59299 1.95)
(322.41599 328.55899 1.95)
(238.33099 183.66299 1.95)
(322.41101 328.55399 1.95)
(322.39999 328.543 1.95)
(239.022 185.591 1.95)
(240.18201 188.431 1.95)
(266.96399 252.866 1.95)
(267.02399 253.015 1.95)
(267.43301 254.086 1.95)
(273.974 271.146 1.95)
(305.048 335.67401 1.95)
(313.561 332.29901 1.95)
(313.54999 332.24399 1.95)
(313.56699 332.26099 1.95)
(313.53299 332.228 1.95)
(313.54401 332.23801 1.95)
(313.54401 332.194 1.95)
(313.534 332.18399 1.95)
(313.54401 332.14999 1.95)
(313.577 332.095 1.95)
(322.33899 328.48199 1.95)
(322.306 328.44901 1.95)
(314.168 331.802 1.95)
(314.26801 331.81299 1.95)
(314.323 331.82401 1.95)
(321.67001 328.65302 1.95)
(314.35101 331.85199 1.95)
(321.60999 328.72501 1.95)
(314.362 331.86301 1.95)
(314.37799 331.879 1.95)
(321.577 328.78 1.95)
(321.56 328.80801 1.95)
(314.39499 331.94 1.95)
(314.379 331.92401 1.95)
(321.565 328.81299 1.95)
(321.55499 328.84698 1.95)
(314.379 331.96799 1.95)
(316.897 330.95099 1.95)
(319.51599 329.90201 1.95)
(321.70401 328.996 1.95)
(321.64801 328.98499 1.95)
(321.63199 328.96799 1.95)
(321.56 328.85199 1.95)
(321.57101 328.86401 1.95)
(321.61499 328.95099 1.95)
(321.56 328.896 1.95)
(321.56601 328.90201 1.95)
(321.58801 328.92401 1.95)
(321.59299 328.92899 1.95)
(321.60901 328.94601 1.95)
(308.52301 295.17599 1.95)
(308.51199 295.16501 1.95)
(308.58301 295.19299 1.95)
(308.573 295.18201 1.95)
(308.60599 295.30301 1.95)
(308.31799 295.59 1.95)
(308.202 295.651 1.95)
(307.76599 295.52399 1.95)
(307.77701 295.535 1.95)
(305.01501 288.92801 1.95)
(305.004 288.961 1.95)
(305.01501 288.97198 1.95)
(305.048 288.87299 1.95)
(305.009 289.01099 1.95)
(305.021 289.022 1.95)
(305.31299 288.65201 1.95)
(305.021 289.06699 1.95)
(305.03699 289.08301 1.95)
(305.379 288.63 1.95)
(305.048 289.09399 1.95)
(305.064 289.10999 1.95)
(305.63901 288.58099 1.95)
(305.07001 289.116 1.95)
(305.103 289.10501 1.95)
(305.70499 288.60199 1.95)
(305.77701 288.63 1.95)
(305.76599 288.61899 1.95)
(305.10901 289.11099 1.95)
(305.12 289.121 1.95)
(305.79401 288.647 1.95)
(305.125 289.12701 1.95)
(305.159 289.116 1.95)
(305.81601 288.66901 1.95)
(305.79999 288.65201 1.95)
(305.164 289.121 1.95)
(305.22501 289.138 1.95)
(305.832 288.685 1.95)
(305.82199 288.67401 1.95)
(305.258 289.12701 1.95)
(305.336 289.116 1.95)
(305.83801 288.69 1.95)
(305.41199 289.10501 1.95)
(305.474 289.077 1.95)
(305.56201 289.03299 1.95)
(305.83801 288.77899 1.95)
(305.78799 288.862 1.95)
(305.827 288.81201 1.95)
(305.70001 288.95001 1.95)
(310.771 325.48801 1.95)
(310.76599 325.52701 1.95)
(310.77701 325.53699 1.95)
(310.82101 325.405 1.95)
(310.95401 325.27301 1.95)
(311.15799 325.16699 1.95)
(310.776 325.582 1.95)
(310.78799 325.59299 1.95)
(311.30099 325.134 1.95)
(310.793 325.59799 1.95)
(311.44 325.14001 1.95)
(311.5 325.15601 1.95)
(310.815 325.62 1.95)
(310.832 325.63699 1.95)
(311.561 325.173 1.95)
(311.54999 325.16199 1.95)
(310.849 325.65399 1.95)
(311.58301 325.19501 1.95)
(311.56699 325.17899 1.95)
(310.854 325.659 1.95)
(310.86499 325.67001 1.95)
(311.60599 325.21799 1.95)
(311.58899 325.20099 1.95)
(310.90399 325.66501 1.95)
(311.59399 325.25 1.95)
(311.61099 325.267 1.95)
(311.60001 325.25601 1.95)
(311.60001 325.29999 1.95)
(310.99799 325.67001 1.95)
(311.11899 325.659 1.95)
(311.28 325.599 1.95)
(311.61099 325.311 1.95)
(311.401 325.543 1.95)
(319.20099 321.80801 1.95)
(318.83099 322.10199 1.95)
(318.815 322.129 1.95)
(318.80899 322.168 1.95)
(318.82001 322.17899 1.95)
(319.345 321.776 1.95)
(319.483 321.78101 1.95)
(319.54401 321.798 1.95)
(318.836 322.23901 1.95)
(319.60501 321.815 1.95)
(319.59399 321.80301 1.95)
(319.64899 321.858 1.95)
(318.897 322.29999 1.95)
(319.638 321.892 1.95)
(319.65399 321.90799 1.95)
(319.64301 321.897 1.95)
(319.64301 321.94101 1.95)
(319.65399 321.952 1.95)
(319.638 321.98001 1.95)
(319.04099 322.31201 1.95)
(319.20099 322.29501 1.95)
(319.323 322.23999 1.95)
(316.04099 315.51099 1.95)
(316.03601 315.54901 1.95)
(316.19 315.35101 1.95)
(316.328 315.26801 1.95)
(316.69901 315.19601 1.95)
(316.76001 315.21301 1.95)
(316.03 315.58801 1.95)
(316.03601 315.638 1.95)
(316.82599 315.23499 1.95)
(316.80899 315.21799 1.95)
(316.84299 315.25201 1.95)
(316.83099 315.23999 1.95)
(316.86401 315.27301 1.95)
(316.853 315.26199 1.95)
(316.86401 315.31699 1.95)
(316.84799 315.30099 1.95)
(316.88101 315.33401 1.95)
(316.87 315.323 1.95)
(316.16299 315.72101 1.95)
(316.86499 315.362 1.95)
(316.17999 315.73801 1.95)
(316.875 315.37299 1.95)
(316.25699 315.72699 1.95)
(316.85901 315.401 1.95)
(316.31201 315.73801 1.95)
(316.84299 315.42801 1.95)
(316.41699 315.70999 1.95)
(316.66 315.599 1.95)
(316.53799 315.655 1.95)
(313.418 308.733 1.95)
(313.41199 308.771 1.95)
(313.423 308.78299 1.95)
(313.483 308.62201 1.95)
(313.41699 308.82101 1.95)
(313.43399 308.83701 1.95)
(313.44501 308.849 1.95)
(313.80399 308.41199 1.95)
(313.45599 308.85999 1.95)
(313.46701 308.871 1.95)
(313.90302 308.379 1.95)
(314.03601 308.379 1.95)
(313.478 308.88199 1.95)
(313.48901 308.89301 1.95)
(314.13501 308.39001 1.95)
(314.19101 308.401 1.95)
(314.17899 308.39001 1.95)
(313.49399 308.89801 1.95)
(313.51099 308.91501 1.95)
(314.207 308.418 1.95)
(313.54401 308.90399 1.95)
(313.54999 308.909 1.95)
(313.599 308.91501 1.95)
(314.23001 308.44 1.95)
(314.21301 308.423 1.95)
(313.638 308.91 1.95)
(313.694 308.92099 1.95)
(314.246 308.45599 1.95)
(314.23499 308.44601 1.95)
(314.241 308.495 1.95)
(313.892 308.854 1.95)
(314.25699 308.51199 1.95)
(314.246 308.5 1.95)
(314.26801 308.52301 1.95)
(314.11899 308.72699 1.95)
(314.23001 308.617 1.95)
(314.23999 308.58401 1.95)
(310.539 302.186 1.95)
(310.52802 302.22 1.95)
(310.617 302.08701 1.95)
(310.52301 302.259 1.95)
(310.73801 301.987 1.95)
(310.517 302.297 1.95)
(310.53299 302.31299 1.95)
(310.85901 301.93201 1.95)
(310.992 301.888 1.95)
(310.539 302.319 1.95)
(311.19699 301.87201 1.95)
(310.54401 302.36899 1.95)
(310.561 302.38599 1.95)
(310.57199 302.396 1.95)
(311.285 301.91501 1.95)
(310.61099 302.39099 1.95)
(310.617 302.397 1.95)
(310.633 302.41299 1.95)
(310.63901 302.41901 1.95)
(310.67099 302.40701 1.95)
(311.33401 301.92099 1.95)
(311.32901 301.95999 1.95)
(311.33499 301.966 1.95)
(311.35699 301.98801 1.95)
(310.716 302.40799 1.95)
(311.35101 302.026 1.95)
(310.84299 302.40201 1.95)
(311.35699 302.03201 1.95)
(311.36801 302.043 1.95)
(310.987 302.36899 1.95)
(311.069 302.319 1.95)
(311.185 302.258 1.95)
(311.25699 302.19699 1.95)
(305.68399 311.871 1.95)
(306.05301 311.798 1.95)
(305.38501 312.147 1.95)
(306.13101 311.832 1.95)
(305.38501 312.19101 1.95)
(305.38501 312.23499 1.95)
(306.16901 311.82599 1.95)
(306.19101 311.84799 1.95)
(305.418 312.26801 1.95)
(305.46799 312.31799 1.95)
(305.48401 312.33499 1.95)
(306.20801 311.99701 1.95)
(305.573 312.33499 1.95)
(305.66699 312.34 1.95)
(305.80499 312.30099 1.95)
(306.11401 312.125 1.95)
(308.01999 318.759 1.95)
(308.009 318.793 1.95)
(308.11899 318.638 1.95)
(307.99799 318.86899 1.95)
(308.009 318.88101 1.95)
(308.74899 318.47198 1.95)
(308.733 318.45499 1.95)
(308.01401 318.92999 1.95)
(308.03101 318.94699 1.95)
(308.76599 318.48901 1.95)
(308.755 318.47699 1.95)
(308.03601 318.952 1.95)
(308.05301 318.96899 1.95)
(308.78799 318.51099 1.95)
(308.77701 318.5 1.95)
(308.05899 318.97501 1.95)
(308.09201 318.96301 1.95)
(308.81 318.53299 1.95)
(308.79401 318.51599 1.95)
(308.103 318.97501 1.95)
(308.11401 318.98599 1.95)
(308.832 318.55499 1.95)
(308.815 318.53799 1.95)
(308.11899 318.991 1.95)
(308.15302 318.98001 1.95)
(308.849 318.57101 1.95)
(308.83701 318.56 1.95)
(308.15799 318.98599 1.95)
(308.21399 318.99701 1.95)
(308.84399 318.60999 1.95)
(308.832 318.599 1.95)
(308.25201 318.991 1.95)
(308.32999 318.98001 1.95)
(308.832 318.64301 1.95)
(308.40701 318.96899 1.95)
(308.556 318.89801 1.95)
(308.66699 318.83099 1.95)
(308.78299 318.72601 1.95)
(302.52301 305.44 1.95)
(302.67801 305.285 1.95)
(302.73901 305.258 1.95)
(302.86099 305.203 1.95)
(302.48001 305.52899 1.95)
(302.474 305.56699 1.95)
(302.48499 305.57901 1.95)
(303.142 305.17499 1.95)
(302.48499 305.62299 1.95)
(302.50101 305.63901 1.95)
(303.19699 305.186 1.95)
(303.25299 305.19699 1.95)
(303.23599 305.181 1.95)
(302.51199 305.64999 1.95)
(302.52899 305.66699 1.95)
(302.534 305.672 1.95)
(302.55099 305.689 1.95)
(302.556 305.694 1.95)
(302.56799 305.70499 1.95)
(302.595 305.689 1.95)
(302.612 305.70499 1.95)
(303.30801 305.29599 1.95)
(302.66101 305.711 1.95)
(302.73901 305.70001 1.95)
(303.319 305.30801 1.95)
(302.78799 305.70499 1.95)
(303.30801 305.341 1.95)
(303.319 305.35199 1.95)
(302.85999 305.689 1.95)
(302.92099 305.66101 1.95)
(303.07001 305.58899 1.95)
(303.13101 305.56201 1.95)
(303.24701 305.457 1.95)
(303.28601 305.40701 1.95)
(299.73901 298.944 1.95)
(299.745 298.905 1.95)
(299.73401 298.98199 1.95)
(299.76199 298.87799 1.95)
(299.86099 298.75601 1.95)
(299.745 298.99399 1.95)
(299.99301 298.66699 1.95)
(299.745 299.03799 1.95)
(299.76199 299.05499 1.95)
(300.258 298.57901 1.95)
(299.772 299.065 1.95)
(300.36899 298.55701 1.95)
(300.44601 298.59 1.95)
(300.496 298.59601 1.95)
(300.48499 298.58401 1.95)
(299.789 299.082 1.95)
(299.806 299.09799 1.95)
(300.52899 298.629 1.95)
(300.51199 298.612 1.95)
(299.84399 299.09299 1.95)
(299.866 299.11499 1.95)
(299.89401 299.099 1.95)
(300.03201 299.104 1.95)
(300.11499 299.099 1.95)
(300.17499 299.07101 1.95)
(300.237 299.043 1.95)
(300.56201 298.70599 1.95)
(300.573 298.673 1.95)
(300.32501 298.99899 1.95)
(300.457 298.91 1.95)
(300.56799 298.71201 1.95)
(300.58401 298.728 1.95)
(271.48199 206.959 1.95)
(271.08499 207.44501 1.95)
(271.14001 207.457 1.95)
(271.15601 207.47301 1.95)
(271.814 206.981 1.95)
(271.62601 207.368 1.95)
(271.759 207.27901 1.95)
(271.82501 207.213 1.95)
(271.85901 207.158 1.95)
(271.86899 207.036 1.95)
(271.86899 207.125 1.95)
(271.88 207.047 1.95)
(271.86899 207.08099 1.95)
(273.98499 214.10201 1.95)
(274.06799 214.09599 1.95)
(273.974 214.091 1.95)
(273.91901 214.08 1.95)
(273.92999 214.091 1.95)
(274.29401 214.058 1.95)
(273.89099 214.052 1.95)
(273.90201 214.064 1.95)
(274.35001 214.02499 1.95)
(273.875 214.036 1.95)
(273.86401 214.02499 1.95)
(274.47101 213.97 1.95)
(273.84698 214.008 1.95)
(273.85199 213.96899 1.95)
(273.84201 214.00301 1.95)
(273.836 213.953 1.95)
(273.84698 213.964 1.95)
(273.84698 213.92 1.95)
(273.858 213.886 1.95)
(273.89099 213.83099 1.95)
(274.00201 213.72099 1.95)
(274.14001 213.638 1.95)
(274.33301 213.56599 1.95)
(274.51001 213.56599 1.95)
(274.57101 213.58299 1.95)
(274.69199 213.70399 1.95)
(274.681 213.69299 1.95)
(274.63699 213.605 1.95)
(274.621 213.589 1.95)
(274.67001 213.68201 1.95)
(274.64801 213.616 1.95)
(274.67001 213.638 1.95)
(276.64801 220.61 1.95)
(276.63101 220.63699 1.95)
(276.625 220.67599 1.95)
(276.63699 220.687 1.95)
(276.703 220.532 1.95)
(276.819 220.427 1.95)
(276.92899 220.36099 1.95)
(276.62601 220.72 1.95)
(277.056 220.311 1.95)
(277.41 220.311 1.95)
(277.427 220.328 1.95)
(276.686 220.78101 1.95)
(277.44299 220.388 1.95)
(276.73599 220.83099 1.95)
(276.76901 220.819 1.95)
(276.82401 220.83 1.95)
(279.647 227.145 1.95)
(279.42099 227.44901 1.95)
(279.94601 227.045 1.95)
(279.71899 227.57001 1.95)
(279.802 227.564 1.95)
(280.255 227.222 1.95)
(280.14499 227.377 1.95)
(282.81299 233.58 1.95)
(282.87399 233.597 1.95)
(282.918 233.597 1.95)
(282.935 233.614 1.95)
(282.957 233.636 1.95)
(282.96201 233.686 1.95)