/*--------------------------------*- C++ -*----------------------------------*\
  =========                 |
  \\      /  F ield         | OpenFOAM: The Open Source CFD Toolbox
   \\    /   O peration     | Website:  https://openfoam.org
    \\  /    A nd           | Version:  7
     \\/     M anipulation  |
\*---------------------------------------------------------------------------*/
FoamFile
{
    version     2.0;
    format      ascii;
    class       dictionary;
    location    "constant";
    object      fvOptions;
}
// * * * * * * * * * * * * * * * * * * * * * * * * * * * * * * * * * * * * * //

injector1
{
    timeStart       0;
    duration        3000;
    selectionMode   points;
    points
    (
        (-5.825 508.711 3.7)
    );
}

options
{
    massSource1
    {
        type            scalarSemiImplicitSource;
        active          yes;

        selectionMode   points;
        points
        (
            (-5.825 508.711 3.7)
        );

        volumeMode      specific;
        injectionRateSuSp
        {
            C      (1000 0); // Source term for scalar field C (e.g., kg/m³/s)
        }
    }
}
// ************************************************************************* //

