/*--------------------------------*- C++ -*----------------------------------*\
  =========                 |
  \\      /  F ield         | OpenFOAM: The Open Source CFD Toolbox
   \\    /   O peration     | Website:  https://openfoam.org
    \\  /    A nd           | Version:  7
     \\/     M anipulation  |
\*---------------------------------------------------------------------------*/
FoamFile
{
    version     2.0;
    format      ascii;
    class       volScalarField;
    object      C;
}
// * * * * * * * * * * * * * * * * * * * * * * * * * * * * * * * * * * * * * //

kInlet          0;   // approx k = 1.5*(I*U)^2 ; I = 0.1

dimensions      [1 -3 0 0 0 0 0];

internalField   uniform 0;

boundaryField
{
    y0
    {
        type            zeroGradient;
    }

    y1
    {
        type            zeroGradient;
    }

    x0
    {
        type            symmetry;
    }

    x1
    {
        type            symmetry;
    }

    terrain
    {
        type            zeroGradient;
    }

    sky
    {
        type            symmetry;
    }

        Buildings
    {
        type            zeroGradient;
    }
	 Water
    {
        type            zeroGradient;
    }
	 Trees
    {
        type            zeroGradient;
    }


    #includeEtc "caseDicts/setConstraintTypes"
}

// ************************************************************************* //

