/*--------------------------------*- C++ -*----------------------------------*\
  =========                 |
  \\      /  F ield         | OpenFOAM: The Open Source CFD Toolbox
   \\    /   O peration     | Website:  https://openfoam.org
    \\  /    A nd           | Version:  7
     \\/     M anipulation  |
\*---------------------------------------------------------------------------*/
FoamFile
{
    version     2.0;
    format      ascii;
    class       volScalarField;
    object      k;
}
// * * * * * * * * * * * * * * * * * * * * * * * * * * * * * * * * * * * * * //

kInlet          2.04;   // approx k = 1.5*(I*U)^2 ; I = 0.1

dimensions      [0 2 -2 0 0 0 0];

internalField   uniform $kInlet;

boundaryField
{
    y0
    {
        type            atmBoundaryLayerInletK;
        #include        "include/ABLConditions";
	value 		2.04;
    }
    y1
    {
        type            inletOutlet;
        inletValue      uniform $kInlet;
        value           uniform $kInlet;
    }

    terrain
    {
        type            kqRWallFunction;
        value           uniform $kInlet;
    }

    x0
    {
        type            symmetry;
    }


    x1
    {
        type            symmetry;
    }

    sky
    {
        type            symmetry;
    
    }

        Buildings
    {
	type            kqRWallFunction;
        value           uniform $kInlet;
    }
 	Water
    {
        type            kqRWallFunction;
        value           uniform $kInlet;
    }
  	Trees
    {
        type            kqRWallFunction;
        value           uniform $kInlet;
    }
    #includeEtc "caseDicts/setConstraintTypes"
}

// ************************************************************************* //
