/*--------------------------------*- C++ -*----------------------------------*\
  =========                 |
  \\      /  F ield         | OpenFOAM: The Open Source CFD Toolbox
   \\    /   O peration     | Website:  https://openfoam.org
    \\  /    A nd           | Version:  7
     \\/     M anipulation  |
\*---------------------------------------------------------------------------*/
FoamFile
{
    version     2.0;
    format      ascii;
    class       volVectorField;
    object      U;
}
// * * * * * * * * * * * * * * * * * * * * * * * * * * * * * * * * * * * * * //

Uinlet          (10 0 0);

dimensions      [0 1 -1 0 0 0 0];

internalField   uniform (0 0 0);

boundaryField
{
    y0
    {
        type            atmBoundaryLayerInletVelocity;
	#include        "include/ABLConditions"
    }

    y1
    {
        type            pressureInletOutletVelocity;
        value           uniform (0 0 0);
    }

    terrain
    {
        type            noSlip;
    }

    x0
    {
        type            symmetry;
    }

    x1
    {
        type            symmetry;
    }

    sky
    {
        type            symmetry;
    }

    Buildings
    {
        type            noSlip;
    }
    Water
    {
        type            noSlip;
    }
    Trees
    {
        type            noSlip;
    }


    #includeEtc "caseDicts/setConstraintTypes"
}

// ************************************************************************* //
